/*--------------------------------*- C++ -*----------------------------------*\
  =========                 |
  \\      /  F ield         | OpenFOAM: The Open Source CFD Toolbox
   \\    /   O peration     | Website:  https://openfoam.org
    \\  /    A nd           | Version:  dev
     \\/     M anipulation  |
\*---------------------------------------------------------------------------*/
FoamFile
{
    format      ascii;
    class       featureEdgeMesh;
    location    "constant/triSurface";
    object      concreteWall.eMesh;
}
// * * * * * * * * * * * * * * * * * * * * * * * * * * * * * * * * * * * * * //


// points:

99
(
(1.7 3.1500001 -2.2)
(11.03 3.1500001 -2.2)
(0 0 0)
(1.7 0 -2.2)
(11.03 0 -2.2)
(1.7 3.1500001 0)
(1.7 3.1500001 1.5)
(11.03 3.1500001 0.30000001)
(12.73 3.1500001 1.5)
(12.73 3.1500001 0.30000001)
(1.7 0 0)
(0 4.1500001 0)
(1.7 4.1500001 0)
(11.03 0 0.30000001)
(12.73 0 1.5)
(12.73 0 0.30000001)
(0 0 1.5)
(1.7 4.1500001 1.5)
(0 4.1500001 1.5)
(12.73 1.644104 0.62800229)
(12.73 1.660763 0.60919797)
(12.73 1.6234289 0.64227343)
(12.73 1.672438 0.5869534)
(12.73 1.599939 0.65118182)
(12.73 1.67845 0.56256109)
(12.73 1.575 0.65420997)
(12.73 1.67845 0.53743893)
(12.73 1.672438 0.51304662)
(12.73 1.660763 0.49080199)
(12.73 1.644104 0.47199771)
(12.73 1.6234289 0.4577266)
(12.73 1.599939 0.44881821)
(12.73 1.550061 0.65118182)
(12.73 1.526571 0.64227343)
(12.73 1.505896 0.62800229)
(12.73 1.489237 0.60919797)
(12.73 1.477562 0.5869534)
(12.73 1.47155 0.56256109)
(12.73 1.47155 0.53743893)
(12.73 1.477562 0.51304662)
(12.73 1.489237 0.49080199)
(12.73 1.505896 0.47199771)
(12.73 1.526571 0.4577266)
(12.73 1.550061 0.44881821)
(12.73 1.575 0.44578999)
(4.7635298 -4.4826598e-16 -2.8639691)
(4.7513628 -5.5633098e-16 -2.850235)
(4.7786298 -3.1414941e-16 -2.874392)
(4.742836 -6.3206408e-16 -2.8339889)
(4.7384448 -6.7106381e-16 -2.816174)
(4.8140001 -6.831873e-31 -2.88311)
(4.7957859 -1.617756e-16 -2.880898)
(4.7384448 -6.7106381e-16 -2.7978261)
(4.8322139 1.617756e-16 -2.880898)
(4.742836 -6.3206408e-16 -2.7800109)
(4.7513628 -5.5633098e-16 -2.7637651)
(4.7635298 -4.4826598e-16 -2.750031)
(4.7786298 -3.1414941e-16 -2.739608)
(4.7957859 -1.617756e-16 -2.7331021)
(4.8140001 0 -2.73089)
(4.8322139 1.617756e-16 -2.7331021)
(4.84937 3.1414941e-16 -2.874392)
(4.86447 4.4826598e-16 -2.8639691)
(4.876637 5.5633098e-16 -2.850235)
(4.8851638 6.3206408e-16 -2.8339889)
(4.889555 6.7106381e-16 -2.816174)
(4.889555 6.7106381e-16 -2.7978261)
(4.8851638 6.3206408e-16 -2.7800109)
(4.876637 5.5633098e-16 -2.7637651)
(4.86447 4.4826598e-16 -2.750031)
(4.84937 3.1414941e-16 -2.739608)
(0 1.62547 0.69303077)
(0 1.637637 0.70676458)
(0 1.61037 0.68260789)
(0 1.6461639 0.72301102)
(0 1.593214 0.67610162)
(0 1.650555 0.74082601)
(0 1.650555 0.75917399)
(0 1.6461639 0.77698898)
(0 1.637637 0.79323542)
(0 1.62547 0.80696923)
(0 1.61037 0.81739211)
(0 1.593214 0.82389838)
(0 1.499445 0.75917399)
(0 1.499445 0.74082601)
(0 1.503836 0.72301102)
(0 1.512363 0.70676458)
(0 1.5245301 0.69303077)
(0 1.5396301 0.68260789)
(0 1.5567859 0.67610162)
(0 1.575 0.67388999)
(0 1.575 0.82611001)
(0 1.5567859 0.82389838)
(0 1.5396301 0.81739211)
(0 1.5245301 0.80696923)
(0 1.512363 0.79323542)
(0 1.503836 0.77698898)
(4.8099999 3.1500001 -2.822)
(4.8099999 0 -2.885)
)


// edges:

108
(
(97 0)
(0 5)
(8 9)
(1 97)
(7 1)
(10 2)
(12 5)
(2 11)
(98 3)
(3 0)
(4 98)
(1 4)
(13 4)
(14 15)
(16 2)
(10 3)
(5 6)
(5 10)
(6 8)
(9 7)
(11 12)
(7 13)
(19 20)
(21 19)
(20 22)
(23 21)
(22 24)
(25 23)
(24 26)
(26 27)
(27 28)
(28 29)
(29 30)
(30 31)
(32 25)
(33 32)
(34 33)
(35 34)
(36 35)
(8 14)
(37 36)
(38 37)
(39 38)
(40 39)
(41 40)
(42 41)
(43 42)
(15 9)
(44 43)
(31 44)
(45 46)
(47 45)
(46 48)
(48 49)
(50 51)
(49 52)
(53 50)
(52 54)
(54 55)
(55 56)
(56 57)
(57 58)
(58 59)
(59 60)
(61 53)
(62 61)
(63 62)
(64 63)
(65 64)
(66 65)
(67 66)
(68 67)
(69 68)
(70 69)
(60 70)
(14 16)
(13 15)
(51 47)
(17 6)
(12 17)
(71 72)
(73 71)
(72 74)
(75 73)
(74 76)
(18 11)
(76 77)
(77 78)
(78 79)
(79 80)
(80 81)
(81 82)
(83 84)
(84 85)
(85 86)
(86 87)
(87 88)
(88 89)
(89 90)
(90 75)
(91 92)
(92 93)
(93 94)
(94 95)
(95 96)
(96 83)
(82 91)
(16 18)
)

// * * * * * * * * * * * * * * * * * * * * * * * * * * * * * * * * * * * * * //


// ************************************************************************* //
