/*--------------------------------*- C++ -*----------------------------------*\
  =========                 |
  \\      /  F ield         | OpenFOAM: The Open Source CFD Toolbox
   \\    /   O peration     | Website:  https://openfoam.org
    \\  /    A nd           | Version:  7
     \\/     M anipulation  |
\*---------------------------------------------------------------------------*/
FoamFile
{
    version     2.0;
    format      ascii;
    class       featureEdgeMesh;
    location    "constant/triSurface";
    object      concreteWall.eMesh;
}
// * * * * * * * * * * * * * * * * * * * * * * * * * * * * * * * * * * * * * //


// points:

73
(
(11.03 0 -2.2)
(11.03 3.15 -2.2)
(12.73 3.15 0.3)
(12.73 0 0.3)
(1.7 3.15 -2.2)
(1.7 0 -2.2)
(0 0 0)
(11.03 3.15 0.3)
(11.03 0 0.3)
(12.73 3.15 1.5)
(12.73 0 1.5)
(1.7 0 0)
(1.7 3.15 0)
(0 4.15 0)
(1.7 4.15 0)
(0 4.15 1.5)
(0 0 1.5)
(1.7 4.15 1.5)
(1.7 3.15 1.5)
(12.73 1.644104 0.6280023)
(12.73 1.660763 0.609198)
(12.73 1.623429 0.6422734)
(12.73 1.672438 0.5869534)
(12.73 1.599939 0.6511818)
(12.73 1.67845 0.5625611)
(12.73 1.575 0.65421)
(12.73 1.67845 0.5374389)
(12.73 1.672438 0.5130466)
(12.73 1.660763 0.490802)
(12.73 1.644104 0.4719977)
(12.73 1.623429 0.4577266)
(12.73 1.599939 0.4488182)
(12.73 1.550061 0.6511818)
(12.73 1.526571 0.6422734)
(12.73 1.505896 0.6280023)
(12.73 1.489237 0.609198)
(12.73 1.477562 0.5869534)
(12.73 1.47155 0.5625611)
(12.73 1.47155 0.5374389)
(12.73 1.477562 0.5130466)
(12.73 1.489237 0.490802)
(12.73 1.505896 0.4719977)
(12.73 1.526571 0.4577266)
(12.73 1.550061 0.4488182)
(12.73 1.575 0.44579)
(0 1.62547 0.6930308)
(0 1.637637 0.7067646)
(0 1.61037 0.6826079)
(0 1.646164 0.723011)
(0 1.593214 0.6761016)
(0 1.650555 0.740826)
(0 1.650555 0.759174)
(0 1.646164 0.776989)
(0 1.637637 0.7932354)
(0 1.62547 0.8069692)
(0 1.61037 0.8173921)
(0 1.593214 0.8238984)
(0 1.499445 0.759174)
(0 1.499445 0.740826)
(0 1.503836 0.723011)
(0 1.512363 0.7067646)
(0 1.52453 0.6930308)
(0 1.53963 0.6826079)
(0 1.556786 0.6761016)
(0 1.575 0.67389)
(0 1.575 0.82611)
(0 1.556786 0.8238984)
(0 1.53963 0.8173921)
(0 1.52453 0.8069692)
(0 1.512363 0.7932354)
(0 1.503836 0.776989)
(4.81 0 -2.885)
(4.81 3.15 -2.822)
)


// edges:

82
(
(8 0)
(0 1)
(1 7)
(7 2)
(2 3)
(3 8)
(2 9)
(10 3)
(0 71)
(72 1)
(4 5)
(5 11)
(12 4)
(6 13)
(11 6)
(14 12)
(6 16)
(71 5)
(4 72)
(7 8)
(11 12)
(18 12)
(19 20)
(21 19)
(20 22)
(23 21)
(22 24)
(25 23)
(24 26)
(26 27)
(27 28)
(28 29)
(29 30)
(30 31)
(32 25)
(33 32)
(34 33)
(35 34)
(36 35)
(9 10)
(37 36)
(38 37)
(39 38)
(40 39)
(41 40)
(42 41)
(43 42)
(44 43)
(31 44)
(13 14)
(45 46)
(47 45)
(46 48)
(49 47)
(48 50)
(15 13)
(50 51)
(51 52)
(52 53)
(53 54)
(54 55)
(55 56)
(57 58)
(58 59)
(59 60)
(60 61)
(61 62)
(62 63)
(63 64)
(64 49)
(65 66)
(66 67)
(67 68)
(68 69)
(69 70)
(70 57)
(56 65)
(16 15)
(17 18)
(14 17)
(10 16)
(18 9)
)

// * * * * * * * * * * * * * * * * * * * * * * * * * * * * * * * * * * * * * //


// ************************************************************************* //
