/*--------------------------------*- C++ -*----------------------------------*\
  =========                 |
  \\      /  F ield         | OpenFOAM: The Open Source CFD Toolbox
   \\    /   O peration     | Website:  https://openfoam.org
    \\  /    A nd           | Version:  dev
     \\/     M anipulation  |
\*---------------------------------------------------------------------------*/
FoamFile
{
    format      ascii;
    class       featureEdgeMesh;
    location    "constant/triSurface";
    object      desarenador.eMesh;
}
// * * * * * * * * * * * * * * * * * * * * * * * * * * * * * * * * * * * * * //


// points:

177
(
(0 4.1500001 0)
(0 4.1500001 1.5)
(0 0 0)
(0 0 1.5)
(12.73 0 1.5)
(12.73 3.1500001 1.5)
(1.7 4.1500001 1.5)
(1.7 0 -2.2)
(11.03 0 -2.2)
(12.73 0 0.30000001)
(1.7 4.1500001 0)
(1.7 3.1500001 -2.2)
(12.73 3.1500001 0.30000001)
(11.03 3.1500001 -2.2)
(1.7 3.1500001 1.5)
(1.7 0 0)
(11.03 0 0.30000001)
(1.7 3.1500001 0)
(11.03 3.1500001 0.30000001)
(-0.40000001 1.5567859 0.82389838)
(-0.40000001 1.575 0.82611001)
(-0.40000001 1.5396301 0.81739211)
(-0.40000001 1.5245301 0.80696923)
(-0.40000001 1.512363 0.79323542)
(-0.40000001 1.503836 0.77698898)
(-0.40000001 1.499445 0.75917399)
(-0.40000001 1.499445 0.74082601)
(-0.40000001 1.503836 0.72301102)
(-0.40000001 1.512363 0.70676458)
(-0.40000001 1.5245301 0.69303077)
(-0.40000001 1.5396301 0.68260789)
(-0.40000001 1.5567859 0.67610162)
(-0.40000001 1.575 0.67388999)
(-0.40000001 1.593214 0.67610162)
(-0.40000001 1.61037 0.68260789)
(-0.40000001 1.62547 0.69303077)
(-0.40000001 1.637637 0.70676458)
(-0.40000001 1.6461639 0.72301102)
(-0.40000001 1.650555 0.74082601)
(-0.40000001 1.650555 0.75917399)
(-0.40000001 1.6461639 0.77698898)
(-0.40000001 1.637637 0.79323542)
(-0.40000001 1.62547 0.80696923)
(-0.40000001 1.61037 0.81739211)
(-0.40000001 1.593214 0.82389838)
(4.8099999 0 -2.885)
(4.8099999 3.1500001 -2.822)
(4.7957859 -0.1 -2.7331021)
(4.8140001 -0.1 -2.73089)
(4.7786298 -0.1 -2.739608)
(4.7635298 -0.1 -2.750031)
(4.7513628 -0.1 -2.7637651)
(4.742836 -0.1 -2.7800109)
(4.7384448 -0.1 -2.7978261)
(4.7384448 -0.1 -2.816174)
(4.742836 -0.1 -2.8339889)
(4.7513628 -0.1 -2.850235)
(4.7635298 -0.1 -2.8639691)
(4.7786298 -0.1 -2.874392)
(4.7957859 -0.1 -2.880898)
(4.8140001 -0.1 -2.88311)
(4.8322139 -0.1 -2.880898)
(4.84937 -0.1 -2.874392)
(4.86447 -0.1 -2.8639691)
(4.876637 -0.1 -2.850235)
(4.8851638 -0.1 -2.8339889)
(4.889555 -0.1 -2.816174)
(4.889555 -0.1 -2.7978261)
(4.8851638 -0.1 -2.7800109)
(4.876637 -0.1 -2.7637651)
(4.86447 -0.1 -2.750031)
(4.84937 -0.1 -2.739608)
(4.8322139 -0.1 -2.7331021)
(12.9 1.550061 0.65118182)
(12.9 1.575 0.65420997)
(12.9 1.526571 0.64227343)
(12.9 1.505896 0.62800229)
(12.9 1.489237 0.60919797)
(12.9 1.477562 0.5869534)
(12.9 1.47155 0.56256109)
(12.9 1.47155 0.53743893)
(12.9 1.477562 0.51304662)
(12.9 1.489237 0.49080199)
(12.9 1.505896 0.47199771)
(12.9 1.526571 0.4577266)
(12.9 1.550061 0.44881821)
(12.9 1.575 0.44578999)
(12.9 1.599939 0.44881821)
(12.9 1.6234289 0.4577266)
(12.9 1.644104 0.47199771)
(12.9 1.660763 0.49080199)
(12.9 1.672438 0.51304662)
(12.9 1.67845 0.53743893)
(12.9 1.67845 0.56256109)
(12.9 1.672438 0.5869534)
(12.9 1.660763 0.60919797)
(12.9 1.644104 0.62800229)
(12.9 1.6234289 0.64227343)
(12.9 1.599939 0.65118182)
(0 1.5567859 0.82389838)
(0 1.575 0.82611001)
(0 1.5396301 0.81739211)
(0 1.5245301 0.80696923)
(0 1.512363 0.79323542)
(0 1.503836 0.77698898)
(0 1.499445 0.75917399)
(0 1.499445 0.74082601)
(0 1.503836 0.72301102)
(0 1.512363 0.70676458)
(0 1.5245301 0.69303077)
(0 1.5396301 0.68260789)
(0 1.5567859 0.67610162)
(0 1.575 0.67388999)
(0 1.593214 0.67610162)
(0 1.61037 0.68260789)
(0 1.62547 0.69303077)
(0 1.637637 0.70676458)
(0 1.6461639 0.72301102)
(0 1.650555 0.74082601)
(0 1.650555 0.75917399)
(0 1.6461639 0.77698898)
(0 1.637637 0.79323542)
(0 1.62547 0.80696923)
(0 1.61037 0.81739211)
(0 1.593214 0.82389838)
(4.7635298 -4.4826598e-16 -2.8639691)
(4.7513628 -5.5633098e-16 -2.850235)
(4.7786298 -3.1414941e-16 -2.874392)
(4.742836 -6.3206408e-16 -2.8339889)
(4.7384448 -6.7106381e-16 -2.816174)
(4.8140001 -6.831873e-31 -2.88311)
(4.7957859 -1.617756e-16 -2.880898)
(4.7384448 -6.7106381e-16 -2.7978261)
(4.8322139 1.617756e-16 -2.880898)
(4.742836 -6.3206408e-16 -2.7800109)
(4.7513628 -5.5633098e-16 -2.7637651)
(4.7635298 -4.4826598e-16 -2.750031)
(4.7786298 -3.1414941e-16 -2.739608)
(4.7957859 -1.617756e-16 -2.7331021)
(4.8140001 0 -2.73089)
(4.8322139 1.617756e-16 -2.7331021)
(4.84937 3.1414941e-16 -2.874392)
(4.86447 4.4826598e-16 -2.8639691)
(4.876637 5.5633098e-16 -2.850235)
(4.8851638 6.3206408e-16 -2.8339889)
(4.889555 6.7106381e-16 -2.816174)
(4.889555 6.7106381e-16 -2.7978261)
(4.8851638 6.3206408e-16 -2.7800109)
(4.876637 5.5633098e-16 -2.7637651)
(4.86447 4.4826598e-16 -2.750031)
(4.84937 3.1414941e-16 -2.739608)
(12.73 1.644104 0.62800229)
(12.73 1.660763 0.60919797)
(12.73 1.6234289 0.64227343)
(12.73 1.672438 0.5869534)
(12.73 1.599939 0.65118182)
(12.73 1.67845 0.56256109)
(12.73 1.575 0.65420997)
(12.73 1.67845 0.53743893)
(12.73 1.672438 0.51304662)
(12.73 1.660763 0.49080199)
(12.73 1.644104 0.47199771)
(12.73 1.6234289 0.4577266)
(12.73 1.599939 0.44881821)
(12.73 1.550061 0.65118182)
(12.73 1.526571 0.64227343)
(12.73 1.505896 0.62800229)
(12.73 1.489237 0.60919797)
(12.73 1.477562 0.5869534)
(12.73 1.47155 0.56256109)
(12.73 1.47155 0.53743893)
(12.73 1.477562 0.51304662)
(12.73 1.489237 0.49080199)
(12.73 1.505896 0.47199771)
(12.73 1.526571 0.4577266)
(12.73 1.550061 0.44881821)
(12.73 1.575 0.44578999)
)


// edges:

187
(
(19 20)
(21 19)
(22 21)
(23 22)
(24 23)
(25 24)
(26 25)
(27 26)
(28 27)
(29 28)
(30 29)
(31 30)
(32 31)
(33 32)
(34 33)
(35 34)
(36 35)
(37 36)
(38 37)
(39 38)
(40 39)
(41 40)
(42 41)
(43 42)
(44 43)
(20 44)
(1 0)
(0 2)
(2 3)
(3 1)
(5 14)
(4 5)
(3 4)
(6 1)
(14 6)
(2 15)
(15 7)
(8 16)
(9 4)
(16 9)
(45 8)
(7 45)
(0 10)
(10 17)
(6 10)
(11 17)
(46 11)
(5 12)
(12 18)
(13 46)
(18 13)
(9 12)
(11 7)
(13 8)
(47 48)
(49 47)
(50 49)
(51 50)
(52 51)
(53 52)
(54 53)
(55 54)
(56 55)
(57 56)
(58 57)
(59 58)
(60 59)
(61 60)
(62 61)
(63 62)
(64 63)
(65 64)
(66 65)
(67 66)
(68 67)
(69 68)
(70 69)
(71 70)
(72 71)
(48 72)
(73 74)
(75 73)
(76 75)
(77 76)
(78 77)
(79 78)
(80 79)
(81 80)
(82 81)
(83 82)
(84 83)
(85 84)
(86 85)
(87 86)
(88 87)
(89 88)
(90 89)
(91 90)
(92 91)
(93 92)
(94 93)
(95 94)
(96 95)
(97 96)
(98 97)
(74 98)
(99 100)
(101 99)
(102 101)
(103 102)
(104 103)
(105 104)
(106 105)
(107 106)
(108 107)
(109 108)
(110 109)
(111 110)
(112 111)
(113 112)
(114 113)
(115 114)
(116 115)
(117 116)
(118 117)
(119 118)
(120 119)
(121 120)
(122 121)
(123 122)
(124 123)
(100 124)
(125 126)
(127 125)
(126 128)
(128 129)
(130 131)
(129 132)
(133 130)
(132 134)
(134 135)
(135 136)
(136 137)
(137 138)
(138 139)
(139 140)
(141 133)
(142 141)
(143 142)
(144 143)
(145 144)
(146 145)
(147 146)
(148 147)
(149 148)
(150 149)
(140 150)
(131 127)
(17 15)
(14 17)
(151 152)
(153 151)
(152 154)
(155 153)
(154 156)
(157 155)
(156 158)
(158 159)
(159 160)
(160 161)
(161 162)
(162 163)
(164 157)
(165 164)
(166 165)
(167 166)
(168 167)
(169 168)
(170 169)
(171 170)
(172 171)
(173 172)
(174 173)
(175 174)
(176 175)
(163 176)
(18 16)
)

// * * * * * * * * * * * * * * * * * * * * * * * * * * * * * * * * * * * * * //


// ************************************************************************* //
