/*--------------------------------*- C++ -*----------------------------------*\
  =========                 |
  \\      /  F ield         | OpenFOAM: The Open Source CFD Toolbox
   \\    /   O peration     | Website:  https://openfoam.org
    \\  /    A nd           | Version:  7
     \\/     M anipulation  |
\*---------------------------------------------------------------------------*/
FoamFile
{
    version     2.0;
    format      ascii;
    class       featureEdgeMesh;
    location    "constant/triSurface";
    object      desarenador.eMesh;
}
// * * * * * * * * * * * * * * * * * * * * * * * * * * * * * * * * * * * * * //


// points:

125
(
(0 4.15 0)
(0 4.15 1.5)
(0 0 0)
(0 0 1.5)
(1.7 0 -2.2)
(11.03 0 -2.2)
(12.73 0 1.5)
(12.73 0 0.3)
(12.73 3.15 1.5)
(1.7 4.15 1.5)
(1.7 4.15 0)
(12.73 3.15 0.3)
(11.03 3.15 -2.2)
(1.7 3.15 -2.2)
(1.7 0 0)
(11.03 0 0.3)
(1.7 3.15 1.5)
(1.7 3.15 0)
(11.03 3.15 0.3)
(-0.4 1.556786 0.8238984)
(-0.4 1.575 0.82611)
(-0.4 1.53963 0.8173921)
(-0.4 1.52453 0.8069692)
(-0.4 1.512363 0.7932354)
(-0.4 1.503836 0.776989)
(-0.4 1.499445 0.759174)
(-0.4 1.499445 0.740826)
(-0.4 1.503836 0.723011)
(-0.4 1.512363 0.7067646)
(-0.4 1.52453 0.6930308)
(-0.4 1.53963 0.6826079)
(-0.4 1.556786 0.6761016)
(-0.4 1.575 0.67389)
(-0.4 1.593214 0.6761016)
(-0.4 1.61037 0.6826079)
(-0.4 1.62547 0.6930308)
(-0.4 1.637637 0.7067646)
(-0.4 1.646164 0.723011)
(-0.4 1.650555 0.740826)
(-0.4 1.650555 0.759174)
(-0.4 1.646164 0.776989)
(-0.4 1.637637 0.7932354)
(-0.4 1.62547 0.8069692)
(-0.4 1.61037 0.8173921)
(-0.4 1.593214 0.8238984)
(4.81 0 -2.885)
(4.81 3.15 -2.822)
(12.9 1.550061 0.6511818)
(12.9 1.575 0.65421)
(12.9 1.526571 0.6422734)
(12.9 1.505896 0.6280023)
(12.9 1.489237 0.609198)
(12.9 1.477562 0.5869534)
(12.9 1.47155 0.5625611)
(12.9 1.47155 0.5374389)
(12.9 1.477562 0.5130466)
(12.9 1.489237 0.490802)
(12.9 1.505896 0.4719977)
(12.9 1.526571 0.4577266)
(12.9 1.550061 0.4488182)
(12.9 1.575 0.44579)
(12.9 1.599939 0.4488182)
(12.9 1.623429 0.4577266)
(12.9 1.644104 0.4719977)
(12.9 1.660763 0.490802)
(12.9 1.672438 0.5130466)
(12.9 1.67845 0.5374389)
(12.9 1.67845 0.5625611)
(12.9 1.672438 0.5869534)
(12.9 1.660763 0.609198)
(12.9 1.644104 0.6280023)
(12.9 1.623429 0.6422734)
(12.9 1.599939 0.6511818)
(0 1.556786 0.8238984)
(0 1.575 0.82611)
(0 1.53963 0.8173921)
(0 1.52453 0.8069692)
(0 1.512363 0.7932354)
(0 1.503836 0.776989)
(0 1.499445 0.759174)
(0 1.499445 0.740826)
(0 1.503836 0.723011)
(0 1.512363 0.7067646)
(0 1.52453 0.6930308)
(0 1.53963 0.6826079)
(0 1.556786 0.6761016)
(0 1.575 0.67389)
(0 1.593214 0.6761016)
(0 1.61037 0.6826079)
(0 1.62547 0.6930308)
(0 1.637637 0.7067646)
(0 1.646164 0.723011)
(0 1.650555 0.740826)
(0 1.650555 0.759174)
(0 1.646164 0.776989)
(0 1.637637 0.7932354)
(0 1.62547 0.8069692)
(0 1.61037 0.8173921)
(0 1.593214 0.8238984)
(12.73 1.644104 0.6280023)
(12.73 1.660763 0.609198)
(12.73 1.623429 0.6422734)
(12.73 1.672438 0.5869534)
(12.73 1.599939 0.6511818)
(12.73 1.67845 0.5625611)
(12.73 1.575 0.65421)
(12.73 1.67845 0.5374389)
(12.73 1.672438 0.5130466)
(12.73 1.660763 0.490802)
(12.73 1.644104 0.4719977)
(12.73 1.623429 0.4577266)
(12.73 1.599939 0.4488182)
(12.73 1.550061 0.6511818)
(12.73 1.526571 0.6422734)
(12.73 1.505896 0.6280023)
(12.73 1.489237 0.609198)
(12.73 1.477562 0.5869534)
(12.73 1.47155 0.5625611)
(12.73 1.47155 0.5374389)
(12.73 1.477562 0.5130466)
(12.73 1.489237 0.490802)
(12.73 1.505896 0.4719977)
(12.73 1.526571 0.4577266)
(12.73 1.550061 0.4488182)
(12.73 1.575 0.44579)
)


// edges:

135
(
(19 20)
(21 19)
(22 21)
(23 22)
(24 23)
(25 24)
(26 25)
(27 26)
(28 27)
(29 28)
(30 29)
(31 30)
(32 31)
(33 32)
(34 33)
(35 34)
(36 35)
(37 36)
(38 37)
(39 38)
(40 39)
(41 40)
(42 41)
(43 42)
(44 43)
(20 44)
(1 0)
(0 2)
(2 3)
(3 1)
(2 14)
(4 45)
(14 4)
(5 15)
(45 5)
(7 6)
(15 7)
(6 3)
(6 8)
(8 16)
(9 1)
(16 9)
(0 10)
(10 17)
(9 10)
(11 8)
(7 11)
(18 11)
(5 12)
(12 18)
(46 12)
(13 46)
(4 13)
(17 13)
(47 48)
(49 47)
(50 49)
(51 50)
(52 51)
(53 52)
(54 53)
(55 54)
(56 55)
(57 56)
(58 57)
(59 58)
(60 59)
(61 60)
(62 61)
(63 62)
(64 63)
(65 64)
(66 65)
(67 66)
(68 67)
(69 68)
(70 69)
(71 70)
(72 71)
(48 72)
(73 74)
(75 73)
(76 75)
(77 76)
(78 77)
(79 78)
(80 79)
(81 80)
(82 81)
(83 82)
(84 83)
(85 84)
(86 85)
(87 86)
(88 87)
(89 88)
(90 89)
(91 90)
(92 91)
(93 92)
(94 93)
(95 94)
(96 95)
(97 96)
(98 97)
(74 98)
(17 14)
(99 100)
(101 99)
(100 102)
(103 101)
(102 104)
(105 103)
(104 106)
(106 107)
(107 108)
(108 109)
(109 110)
(110 111)
(112 105)
(113 112)
(114 113)
(115 114)
(116 115)
(117 116)
(118 117)
(119 118)
(120 119)
(121 120)
(122 121)
(123 122)
(124 123)
(111 124)
(15 18)
(16 17)
)

// * * * * * * * * * * * * * * * * * * * * * * * * * * * * * * * * * * * * * //


// ************************************************************************* //
