/*--------------------------------*- C++ -*----------------------------------*\
  =========                 |
  \\      /  F ield         | OpenFOAM: The Open Source CFD Toolbox
   \\    /   O peration     | Website:  https://openfoam.org
    \\  /    A nd           | Version:  7
     \\/     M anipulation  |
\*---------------------------------------------------------------------------*/
FoamFile
{
    version     2.0;
    format      ascii;
    class       featureEdgeMesh;
    location    "constant/triSurface";
    object      difusor1.eMesh;
}
// * * * * * * * * * * * * * * * * * * * * * * * * * * * * * * * * * * * * * //


// points:

2504
(
(3.58 3.15 -0.1)
(3.58 3.15 1.2)
(3.73 3.15 1.2)
(3.73 3.15 -0.1)
(3.58 0 1.2)
(3.73 0 1.2)
(3.58 0 -0.1)
(3.73 0 -0.1)
(3.58 3.027609 0.9897645)
(3.58 3.016419 1.002396)
(3.58 3.002531 1.011982)
(3.58 3.035451 0.9748223)
(3.58 2.986752 1.017966)
(3.58 3.03949 0.9584376)
(3.58 2.97 1.02)
(3.58 3.03949 0.9415624)
(3.58 2.953248 1.017966)
(3.58 3.016419 0.8976042)
(3.58 3.027609 0.9102355)
(3.58 3.027609 0.7397645)
(3.58 3.016419 0.7523958)
(3.58 2.923581 1.002396)
(3.58 2.912391 0.9897645)
(3.58 2.777609 0.9897645)
(3.58 2.766419 1.002396)
(3.58 3.002531 0.8880181)
(3.58 3.002531 0.7619819)
(3.58 2.937469 1.011982)
(3.58 2.752531 1.011982)
(3.58 3.035451 0.9251777)
(3.58 3.035451 0.7248223)
(3.58 2.904549 0.9748223)
(3.58 2.785451 0.9748223)
(3.58 2.986752 0.7679659)
(3.58 2.986752 0.8820341)
(3.58 2.736752 1.017966)
(3.58 3.03949 0.7084376)
(3.58 2.90051 0.9584376)
(3.58 2.78949 0.9584376)
(3.58 2.97 0.77)
(3.58 2.97 0.88)
(3.58 2.72 1.02)
(3.58 3.03949 0.6915624)
(3.58 2.90051 0.9415624)
(3.58 2.78949 0.9415624)
(3.58 2.953248 0.8820341)
(3.58 2.953248 0.7679659)
(3.58 2.703248 1.017966)
(3.58 2.904549 0.9251777)
(3.58 2.785451 0.9251777)
(3.58 2.937469 0.8880181)
(3.58 2.937469 0.7619819)
(3.58 2.777609 0.9102355)
(3.58 2.912391 0.9102355)
(3.58 2.923581 0.7523958)
(3.58 2.923581 0.8976042)
(3.58 2.766419 0.8976042)
(3.58 3.027609 0.4897645)
(3.58 3.016419 0.5023958)
(3.58 3.016419 0.6476042)
(3.58 3.027609 0.6602355)
(3.58 2.777609 0.7397645)
(3.58 2.766419 0.7523958)
(3.58 2.912391 0.7397645)
(3.58 2.673581 1.002396)
(3.58 2.662391 0.9897645)
(3.58 2.527609 0.9897645)
(3.58 2.516419 1.002396)
(3.58 3.002531 0.5119819)
(3.58 3.002531 0.6380181)
(3.58 2.752531 0.8880181)
(3.58 2.752531 0.7619819)
(3.58 2.687469 1.011982)
(3.58 2.502531 1.011982)
(3.58 3.035451 0.4748223)
(3.58 3.035451 0.6751777)
(3.58 2.785451 0.7248223)
(3.58 2.904549 0.7248223)
(3.58 2.535451 0.9748223)
(3.58 2.654549 0.9748223)
(3.58 2.986752 0.5179659)
(3.58 2.986752 0.6320341)
(3.58 2.736752 0.7679659)
(3.58 2.736752 0.8820341)
(3.58 2.486752 1.017966)
(3.58 3.03949 0.4584376)
(3.58 2.78949 0.7084376)
(3.58 2.90051 0.7084376)
(3.58 2.65051 0.9584376)
(3.58 2.53949 0.9584376)
(3.58 2.97 0.52)
(3.58 2.97 0.63)
(3.58 2.72 0.77)
(3.58 2.72 0.88)
(3.58 2.47 1.02)
(3.58 2.78949 0.6915624)
(3.58 2.90051 0.6915624)
(3.58 2.65051 0.9415624)
(3.58 2.53949 0.9415624)
(3.58 2.953248 0.5179659)
(3.58 2.953248 0.6320341)
(3.58 2.703248 0.7679659)
(3.58 2.703248 0.8820341)
(3.58 2.785451 0.6751777)
(3.58 2.904549 0.6751777)
(3.58 2.654549 0.9251777)
(3.58 2.535451 0.9251777)
(3.58 2.937469 0.5119819)
(3.58 2.937469 0.6380181)
(3.58 2.687469 0.8880181)
(3.58 2.687469 0.7619819)
(3.58 2.777609 0.6602355)
(3.58 2.912391 0.6602355)
(3.58 2.923581 0.6476042)
(3.58 2.662391 0.9102355)
(3.58 2.527609 0.9102355)
(3.58 2.923581 0.5023958)
(3.58 2.673581 0.8976042)
(3.58 2.673581 0.7523958)
(3.58 2.516419 0.8976042)
(3.58 2.766419 0.6476042)
(3.58 2.423581 1.002396)
(3.58 2.412391 0.9897645)
(3.58 2.662391 0.7397645)
(3.58 3.016419 0.3976042)
(3.58 3.027609 0.4102355)
(3.58 3.027609 0.2397645)
(3.58 3.016419 0.2523958)
(3.58 2.912391 0.4897645)
(3.58 2.777609 0.4897645)
(3.58 2.766419 0.5023958)
(3.58 2.277609 0.9897645)
(3.58 2.266419 1.002396)
(3.58 2.527609 0.7397645)
(3.58 2.516419 0.7523958)
(3.58 3.002531 0.3880181)
(3.58 3.002531 0.2619819)
(3.58 2.752531 0.6380181)
(3.58 2.752531 0.5119819)
(3.58 2.502531 0.7619819)
(3.58 2.502531 0.8880181)
(3.58 2.252531 1.011982)
(3.58 2.437469 1.011982)
(3.58 3.035451 0.4251777)
(3.58 3.035451 0.2248223)
(3.58 2.785451 0.4748223)
(3.58 2.904549 0.4748223)
(3.58 2.404549 0.9748223)
(3.58 2.285451 0.9748223)
(3.58 2.654549 0.7248223)
(3.58 2.535451 0.7248223)
(3.58 2.986752 0.3820341)
(3.58 2.986752 0.2679659)
(3.58 2.736752 0.6320341)
(3.58 2.736752 0.5179659)
(3.58 2.486752 0.8820341)
(3.58 2.486752 0.7679659)
(3.58 2.453248 1.017966)
(3.58 2.236752 1.017966)
(3.58 3.03949 0.4415624)
(3.58 3.03949 0.2084376)
(3.58 2.90051 0.4584376)
(3.58 2.90051 0.4415624)
(3.58 2.78949 0.4584376)
(3.58 2.65051 0.7084376)
(3.58 2.53949 0.7084376)
(3.58 2.28949 0.9584376)
(3.58 2.40051 0.9584376)
(3.58 2.97 0.38)
(3.58 2.97 0.27)
(3.58 2.72 0.63)
(3.58 2.72 0.52)
(3.58 2.47 0.77)
(3.58 2.47 0.88)
(3.58 2.22 1.02)
(3.58 2.904549 0.4251777)
(3.58 2.78949 0.4415624)
(3.58 2.65051 0.6915624)
(3.58 2.53949 0.6915624)
(3.58 2.28949 0.9415624)
(3.58 2.40051 0.9415624)
(3.58 2.937469 0.3880181)
(3.58 2.953248 0.3820341)
(3.58 2.953248 0.2679659)
(3.58 2.703248 0.6320341)
(3.58 2.703248 0.5179659)
(3.58 2.453248 0.7679659)
(3.58 2.453248 0.8820341)
(3.58 2.912391 0.4102355)
(3.58 2.785451 0.4251777)
(3.58 2.654549 0.6751777)
(3.58 2.535451 0.6751777)
(3.58 2.285451 0.9251777)
(3.58 2.404549 0.9251777)
(3.58 2.937469 0.2619819)
(3.58 2.437469 0.7619819)
(3.58 2.437469 0.8880181)
(3.58 2.687469 0.5119819)
(3.58 2.687469 0.6380181)
(3.58 2.527609 0.6602355)
(3.58 2.662391 0.6602355)
(3.58 2.777609 0.4102355)
(3.58 2.277609 0.9102355)
(3.58 2.412391 0.9102355)
(3.58 2.423581 0.8976042)
(3.58 2.923581 0.2523958)
(3.58 2.923581 0.3976042)
(3.58 2.423581 0.7523958)
(3.58 2.673581 0.6476042)
(3.58 2.673581 0.5023958)
(3.58 2.766419 0.3976042)
(3.58 2.516419 0.6476042)
(3.58 2.266419 0.8976042)
(3.58 2.953248 0.1320341)
(3.58 2.97 0.13)
(3.58 2.986752 0.1320341)
(3.58 3.002531 0.1380181)
(3.58 3.016419 0.1476042)
(3.58 3.027609 0.1602355)
(3.58 3.035451 0.1751777)
(3.58 3.03949 0.1915624)
(3.58 2.777609 0.2397645)
(3.58 2.766419 0.2523958)
(3.58 2.912391 0.2397645)
(3.58 2.527609 0.4897645)
(3.58 2.516419 0.5023958)
(3.58 2.662391 0.4897645)
(3.58 2.412391 0.7397645)
(3.58 2.277609 0.7397645)
(3.58 2.266419 0.7523958)
(3.58 2.173581 1.002396)
(3.58 2.162391 0.9897645)
(3.58 2.027609 0.9897645)
(3.58 2.016419 1.002396)
(3.58 2.752531 0.2619819)
(3.58 2.752531 0.3880181)
(3.58 2.252531 0.7619819)
(3.58 2.252531 0.8880181)
(3.58 2.502531 0.6380181)
(3.58 2.502531 0.5119819)
(3.58 2.203248 1.017966)
(3.58 2.187469 1.011982)
(3.58 2.002531 1.011982)
(3.58 2.785451 0.2248223)
(3.58 2.904549 0.2248223)
(3.58 2.535451 0.4748223)
(3.58 2.654549 0.4748223)
(3.58 2.285451 0.7248223)
(3.58 2.404549 0.7248223)
(3.58 2.154549 0.9748223)
(3.58 2.035451 0.9748223)
(3.58 2.736752 0.3820341)
(3.58 2.736752 0.2679659)
(3.58 2.47 0.63)
(3.58 2.486752 0.6320341)
(3.58 2.486752 0.5179659)
(3.58 2.236752 0.8820341)
(3.58 2.236752 0.7679659)
(3.58 1.986752 1.017966)
(3.58 2.78949 0.2084376)
(3.58 2.90051 0.2084376)
(3.58 2.65051 0.4584376)
(3.58 2.53949 0.4584376)
(3.58 2.40051 0.7084376)
(3.58 2.28949 0.7084376)
(3.58 2.03949 0.9584376)
(3.58 2.15051 0.9584376)
(3.58 2.72 0.38)
(3.58 2.72 0.27)
(3.58 2.47 0.52)
(3.58 2.22 0.77)
(3.58 2.22 0.88)
(3.58 1.97 1.02)
(3.58 2.78949 0.1915624)
(3.58 2.90051 0.1915624)
(3.58 2.53949 0.4415624)
(3.58 2.65051 0.4415624)
(3.58 2.654549 0.4251777)
(3.58 2.40051 0.6915624)
(3.58 2.28949 0.6915624)
(3.58 2.15051 0.9415624)
(3.58 2.03949 0.9415624)
(3.58 2.703248 0.2679659)
(3.58 2.703248 0.3820341)
(3.58 2.453248 0.5179659)
(3.58 2.453248 0.6320341)
(3.58 2.203248 0.7679659)
(3.58 2.203248 0.8820341)
(3.58 2.535451 0.4251777)
(3.58 2.785451 0.1751777)
(3.58 2.904549 0.1751777)
(3.58 2.285451 0.6751777)
(3.58 2.404549 0.6751777)
(3.58 2.154549 0.9251777)
(3.58 2.162391 0.9102355)
(3.58 2.035451 0.9251777)
(3.58 2.437469 0.6380181)
(3.58 2.437469 0.5119819)
(3.58 2.687469 0.2619819)
(3.58 2.687469 0.3880181)
(3.58 2.187469 0.7619819)
(3.58 2.173581 0.8976042)
(3.58 2.187469 0.8880181)
(3.58 2.912391 0.1602355)
(3.58 2.923581 0.1476042)
(3.58 2.777609 0.1602355)
(3.58 2.662391 0.4102355)
(3.58 2.673581 0.3976042)
(3.58 2.527609 0.4102355)
(3.58 2.412391 0.6602355)
(3.58 2.423581 0.6476042)
(3.58 2.277609 0.6602355)
(3.58 2.027609 0.9102355)
(3.58 2.673581 0.2523958)
(3.58 2.423581 0.5023958)
(3.58 2.173581 0.7523958)
(3.58 2.766419 0.1476042)
(3.58 2.516419 0.3976042)
(3.58 2.266419 0.6476042)
(3.58 2.016419 0.8976042)
(3.58 2.937469 0.1380181)
(3.58 2.752531 0.1380181)
(3.58 2.736752 0.1320341)
(3.58 2.72 0.13)
(3.58 2.703248 0.1320341)
(3.58 2.662391 0.2397645)
(3.58 2.162391 0.7397645)
(3.58 1.937469 1.011982)
(3.58 1.923581 1.002396)
(3.58 2.277609 0.4897645)
(3.58 2.266419 0.5023958)
(3.58 2.412391 0.4897645)
(3.58 2.527609 0.2397645)
(3.58 2.516419 0.2523958)
(3.58 2.027609 0.7397645)
(3.58 2.016419 0.7523958)
(3.58 1.777609 0.9897645)
(3.58 1.766419 1.002396)
(3.58 1.912391 0.9897645)
(3.58 2.502531 0.3880181)
(3.58 2.502531 0.2619819)
(3.58 2.002531 0.8880181)
(3.58 2.002531 0.7619819)
(3.58 2.252531 0.6380181)
(3.58 2.252531 0.5119819)
(3.58 1.752531 1.011982)
(3.58 2.404549 0.4748223)
(3.58 2.285451 0.4748223)
(3.58 2.535451 0.2248223)
(3.58 2.654549 0.2248223)
(3.58 2.154549 0.7248223)
(3.58 2.035451 0.7248223)
(3.58 1.785451 0.9748223)
(3.58 1.904549 0.9748223)
(3.58 2.236752 0.5179659)
(3.58 2.236752 0.6320341)
(3.58 2.486752 0.3820341)
(3.58 2.486752 0.2679659)
(3.58 1.986752 0.7679659)
(3.58 1.986752 0.8820341)
(3.58 1.953248 1.017966)
(3.58 1.736752 1.017966)
(3.58 2.65051 0.2084376)
(3.58 2.53949 0.2084376)
(3.58 2.40051 0.4584376)
(3.58 2.28949 0.4584376)
(3.58 2.15051 0.7084376)
(3.58 2.03949 0.7084376)
(3.58 1.78949 0.9584376)
(3.58 1.90051 0.9584376)
(3.58 2.47 0.27)
(3.58 2.47 0.38)
(3.58 2.22 0.52)
(3.58 2.22 0.63)
(3.58 1.97 0.77)
(3.58 1.97 0.88)
(3.58 1.72 1.02)
(3.58 2.65051 0.1915624)
(3.58 2.654549 0.1751777)
(3.58 2.53949 0.1915624)
(3.58 2.40051 0.4415624)
(3.58 2.28949 0.4415624)
(3.58 2.03949 0.6915624)
(3.58 2.15051 0.6915624)
(3.58 1.78949 0.9415624)
(3.58 1.90051 0.9415624)
(3.58 2.453248 0.2679659)
(3.58 2.453248 0.3820341)
(3.58 2.203248 0.5179659)
(3.58 2.203248 0.6320341)
(3.58 1.953248 0.7679659)
(3.58 1.953248 0.8820341)
(3.58 2.285451 0.4251777)
(3.58 2.404549 0.4251777)
(3.58 2.535451 0.1751777)
(3.58 2.154549 0.6751777)
(3.58 2.035451 0.6751777)
(3.58 1.785451 0.9251777)
(3.58 1.904549 0.9251777)
(3.58 1.912391 0.9102355)
(3.58 2.437469 0.2619819)
(3.58 2.423581 0.3976042)
(3.58 2.437469 0.3880181)
(3.58 2.187469 0.5119819)
(3.58 2.173581 0.6476042)
(3.58 2.187469 0.6380181)
(3.58 1.937469 0.7619819)
(3.58 1.937469 0.8880181)
(3.58 2.277609 0.4102355)
(3.58 2.412391 0.4102355)
(3.58 2.662391 0.1602355)
(3.58 2.527609 0.1602355)
(3.58 2.162391 0.6602355)
(3.58 2.027609 0.6602355)
(3.58 1.777609 0.9102355)
(3.58 2.423581 0.2523958)
(3.58 2.173581 0.5023958)
(3.58 1.923581 0.7523958)
(3.58 1.923581 0.8976042)
(3.58 2.673581 0.1476042)
(3.58 2.516419 0.1476042)
(3.58 2.266419 0.3976042)
(3.58 1.766419 0.8976042)
(3.58 2.016419 0.6476042)
(3.58 2.687469 0.1380181)
(3.58 2.502531 0.1380181)
(3.58 2.486752 0.1320341)
(3.58 2.47 0.13)
(3.58 2.027609 0.4897645)
(3.58 2.016419 0.5023958)
(3.58 2.162391 0.4897645)
(3.58 2.412391 0.2397645)
(3.58 2.277609 0.2397645)
(3.58 2.266419 0.2523958)
(3.58 1.777609 0.7397645)
(3.58 1.766419 0.7523958)
(3.58 1.912391 0.7397645)
(3.58 1.673581 1.002396)
(3.58 1.662391 0.9897645)
(3.58 1.527609 0.9897645)
(3.58 1.516419 1.002396)
(3.58 2.252531 0.3880181)
(3.58 2.252531 0.2619819)
(3.58 2.002531 0.5119819)
(3.58 2.002531 0.6380181)
(3.58 1.752531 0.7619819)
(3.58 1.752531 0.8880181)
(3.58 1.687469 1.011982)
(3.58 1.502531 1.011982)
(3.58 2.285451 0.2248223)
(3.58 2.404549 0.2248223)
(3.58 1.904549 0.7248223)
(3.58 1.90051 0.7084376)
(3.58 1.785451 0.7248223)
(3.58 2.154549 0.4748223)
(3.58 2.035451 0.4748223)
(3.58 1.654549 0.9748223)
(3.58 1.535451 0.9748223)
(3.58 1.986752 0.6320341)
(3.58 1.986752 0.5179659)
(3.58 2.236752 0.3820341)
(3.58 2.236752 0.2679659)
(3.58 1.736752 0.8820341)
(3.58 1.736752 0.7679659)
(3.58 1.703248 1.017966)
(3.58 1.486752 1.017966)
(3.58 2.40051 0.2084376)
(3.58 2.28949 0.2084376)
(3.58 2.03949 0.4584376)
(3.58 2.15051 0.4584376)
(3.58 1.78949 0.7084376)
(3.58 1.65051 0.9584376)
(3.58 1.53949 0.9584376)
(3.58 2.22 0.27)
(3.58 2.22 0.38)
(3.58 1.97 0.52)
(3.58 1.97 0.63)
(3.58 1.72 0.77)
(3.58 1.72 0.88)
(3.58 1.47 1.02)
(3.58 2.40051 0.1915624)
(3.58 2.404549 0.1751777)
(3.58 2.28949 0.1915624)
(3.58 1.78949 0.6915624)
(3.58 1.90051 0.6915624)
(3.58 2.15051 0.4415624)
(3.58 2.03949 0.4415624)
(3.58 1.65051 0.9415624)
(3.58 1.53949 0.9415624)
(3.58 2.203248 0.2679659)
(3.58 2.187469 0.3880181)
(3.58 2.203248 0.3820341)
(3.58 1.703248 0.8820341)
(3.58 1.703248 0.7679659)
(3.58 1.953248 0.5179659)
(3.58 1.953248 0.6320341)
(3.58 2.035451 0.4251777)
(3.58 2.154549 0.4251777)
(3.58 2.412391 0.1602355)
(3.58 2.285451 0.1751777)
(3.58 1.785451 0.6751777)
(3.58 1.904549 0.6751777)
(3.58 1.654549 0.9251777)
(3.58 1.662391 0.9102355)
(3.58 1.535451 0.9251777)
(3.58 2.187469 0.2619819)
(3.58 1.687469 0.8880181)
(3.58 1.687469 0.7619819)
(3.58 1.937469 0.5119819)
(3.58 1.923581 0.6476042)
(3.58 1.937469 0.6380181)
(3.58 2.027609 0.4102355)
(3.58 2.162391 0.4102355)
(3.58 2.423581 0.1476042)
(3.58 2.277609 0.1602355)
(3.58 1.777609 0.6602355)
(3.58 1.912391 0.6602355)
(3.58 1.527609 0.9102355)
(3.58 2.173581 0.2523958)
(3.58 2.173581 0.3976042)
(3.58 1.923581 0.5023958)
(3.58 1.673581 0.8976042)
(3.58 1.673581 0.7523958)
(3.58 2.266419 0.1476042)
(3.58 2.016419 0.3976042)
(3.58 1.766419 0.6476042)
(3.58 1.516419 0.8976042)
(3.58 2.437469 0.1380181)
(3.58 2.252531 0.1380181)
(3.58 2.453248 0.1320341)
(3.58 2.236752 0.1320341)
(3.58 2.22 0.13)
(3.58 2.162391 0.2397645)
(3.58 2.027609 0.2397645)
(3.58 2.016419 0.2523958)
(3.58 1.777609 0.4897645)
(3.58 1.766419 0.5023958)
(3.58 1.912391 0.4897645)
(3.58 1.423581 1.002396)
(3.58 1.412391 0.9897645)
(3.58 1.277609 0.9897645)
(3.58 1.266419 1.002396)
(3.58 1.527609 0.7397645)
(3.58 1.516419 0.7523958)
(3.58 1.662391 0.7397645)
(3.58 2.002531 0.3880181)
(3.58 2.002531 0.2619819)
(3.58 1.752531 0.6380181)
(3.58 1.752531 0.5119819)
(3.58 1.437469 1.011982)
(3.58 1.252531 1.011982)
(3.58 1.486752 0.8820341)
(3.58 1.502531 0.8880181)
(3.58 1.502531 0.7619819)
(3.58 2.154549 0.2248223)
(3.58 2.035451 0.2248223)
(3.58 1.404549 0.9748223)
(3.58 1.285451 0.9748223)
(3.58 1.535451 0.7248223)
(3.58 1.654549 0.7248223)
(3.58 1.65051 0.7084376)
(3.58 1.785451 0.4748223)
(3.58 1.904549 0.4748223)
(3.58 1.986752 0.2679659)
(3.58 1.986752 0.3820341)
(3.58 1.736752 0.6320341)
(3.58 1.736752 0.5179659)
(3.58 1.453248 1.017966)
(3.58 1.236752 1.017966)
(3.58 1.47 0.88)
(3.58 1.486752 0.7679659)
(3.58 1.78949 0.4584376)
(3.58 1.90051 0.4584376)
(3.58 2.03949 0.2084376)
(3.58 2.15051 0.2084376)
(3.58 1.28949 0.9584376)
(3.58 1.40051 0.9584376)
(3.58 1.53949 0.7084376)
(3.58 1.97 0.38)
(3.58 1.97 0.27)
(3.58 1.703248 0.6320341)
(3.58 1.72 0.63)
(3.58 1.72 0.52)
(3.58 1.22 1.02)
(3.58 1.47 0.77)
(3.58 1.90051 0.4415624)
(3.58 1.904549 0.4251777)
(3.58 1.78949 0.4415624)
(3.58 2.03949 0.1915624)
(3.58 2.15051 0.1915624)
(3.58 1.28949 0.9415624)
(3.58 1.40051 0.9415624)
(3.58 1.53949 0.6915624)
(3.58 1.65051 0.6915624)
(3.58 1.703248 0.5179659)
(3.58 1.687469 0.6380181)
(3.58 1.937469 0.3880181)
(3.58 1.953248 0.3820341)
(3.58 1.953248 0.2679659)
(3.58 1.453248 0.7679659)
(3.58 1.453248 0.8820341)
(3.58 1.785451 0.4251777)
(3.58 2.035451 0.1751777)
(3.58 2.154549 0.1751777)
(3.58 1.404549 0.9251777)
(3.58 1.285451 0.9251777)
(3.58 1.535451 0.6751777)
(3.58 1.654549 0.6751777)
(3.58 1.662391 0.6602355)
(3.58 1.937469 0.2619819)
(3.58 1.687469 0.5119819)
(3.58 1.673581 0.6476042)
(3.58 1.437469 0.8880181)
(3.58 1.437469 0.7619819)
(3.58 2.027609 0.1602355)
(3.58 2.162391 0.1602355)
(3.58 2.173581 0.1476042)
(3.58 1.912391 0.4102355)
(3.58 1.777609 0.4102355)
(3.58 1.412391 0.9102355)
(3.58 1.423581 0.8976042)
(3.58 1.277609 0.9102355)
(3.58 1.527609 0.6602355)
(3.58 1.923581 0.3976042)
(3.58 1.923581 0.2523958)
(3.58 1.673581 0.5023958)
(3.58 1.423581 0.7523958)
(3.58 1.766419 0.3976042)
(3.58 2.187469 0.1380181)
(3.58 2.016419 0.1476042)
(3.58 1.266419 0.8976042)
(3.58 1.516419 0.6476042)
(3.58 2.002531 0.1380181)
(3.58 1.986752 0.1320341)
(3.58 2.203248 0.1320341)
(3.58 1.97 0.13)
(3.58 1.412391 0.7397645)
(3.58 1.777609 0.2397645)
(3.58 1.766419 0.2523958)
(3.58 1.912391 0.2397645)
(3.58 1.904549 0.2248223)
(3.58 1.662391 0.4897645)
(3.58 1.527609 0.4897645)
(3.58 1.516419 0.5023958)
(3.58 1.027609 0.9897645)
(3.58 1.016419 1.002396)
(3.58 1.173581 1.002396)
(3.58 1.162391 0.9897645)
(3.58 1.277609 0.7397645)
(3.58 1.266419 0.7523958)
(3.58 1.752531 0.3880181)
(3.58 1.752531 0.2619819)
(3.58 1.502531 0.6380181)
(3.58 1.502531 0.5119819)
(3.58 1.002531 1.011982)
(3.58 1.203248 1.017966)
(3.58 1.187469 1.011982)
(3.58 1.236752 0.8820341)
(3.58 1.252531 0.8880181)
(3.58 1.252531 0.7619819)
(3.58 1.785451 0.2248223)
(3.58 1.90051 0.2084376)
(3.58 1.404549 0.7248223)
(3.58 1.285451 0.7248223)
(3.58 1.535451 0.4748223)
(3.58 1.654549 0.4748223)
(3.58 1.65051 0.4584376)
(3.58 1.154549 0.9748223)
(3.58 1.15051 0.9584376)
(3.58 1.035451 0.9748223)
(3.58 1.736752 0.2679659)
(3.58 1.736752 0.3820341)
(3.58 1.486752 0.5179659)
(3.58 1.47 0.63)
(3.58 1.486752 0.6320341)
(3.58 1.236752 0.7679659)
(3.58 0.9867521 1.017966)
(3.58 1.78949 0.2084376)
(3.58 1.53949 0.4584376)
(3.58 1.40051 0.7084376)
(3.58 1.28949 0.7084376)
(3.58 1.03949 0.9584376)
(3.58 1.72 0.27)
(3.58 1.72 0.38)
(3.58 1.47 0.52)
(3.58 0.97 1.02)
(3.58 1.22 0.88)
(3.58 1.22 0.77)
(3.58 1.78949 0.1915624)
(3.58 1.90051 0.1915624)
(3.58 1.40051 0.6915624)
(3.58 1.404549 0.6751777)
(3.58 1.28949 0.6915624)
(3.58 1.65051 0.4415624)
(3.58 1.654549 0.4251777)
(3.58 1.53949 0.4415624)
(3.58 1.03949 0.9415624)
(3.58 1.15051 0.9415624)
(3.58 1.703248 0.3820341)
(3.58 1.703248 0.2679659)
(3.58 1.203248 0.7679659)
(3.58 1.203248 0.8820341)
(3.58 1.453248 0.5179659)
(3.58 1.453248 0.6320341)
(3.58 1.785451 0.1751777)
(3.58 1.904549 0.1751777)
(3.58 1.912391 0.1602355)
(3.58 1.535451 0.4251777)
(3.58 1.035451 0.9251777)
(3.58 1.154549 0.9251777)
(3.58 1.285451 0.6751777)
(3.58 1.673581 0.3976042)
(3.58 1.687469 0.3880181)
(3.58 1.687469 0.2619819)
(3.58 1.187469 0.7619819)
(3.58 1.187469 0.8880181)
(3.58 1.437469 0.6380181)
(3.58 1.437469 0.5119819)
(3.58 1.777609 0.1602355)
(3.58 1.923581 0.1476042)
(3.58 1.662391 0.4102355)
(3.58 1.527609 0.4102355)
(3.58 1.027609 0.9102355)
(3.58 1.162391 0.9102355)
(3.58 1.412391 0.6602355)
(3.58 1.423581 0.6476042)
(3.58 1.277609 0.6602355)
(3.58 1.673581 0.2523958)
(3.58 1.423581 0.5023958)
(3.58 1.173581 0.7523958)
(3.58 1.173581 0.8976042)
(3.58 1.766419 0.1476042)
(3.58 1.516419 0.3976042)
(3.58 1.016419 0.8976042)
(3.58 1.266419 0.6476042)
(3.58 1.752531 0.1380181)
(3.58 1.937469 0.1380181)
(3.58 1.736752 0.1320341)
(3.58 1.953248 0.1320341)
(3.58 1.72 0.13)
(3.58 0.9374694 1.011982)
(3.58 0.9235814 1.002396)
(3.58 1.662391 0.2397645)
(3.58 1.527609 0.2397645)
(3.58 1.516419 0.2523958)
(3.58 1.412391 0.4897645)
(3.58 1.277609 0.4897645)
(3.58 1.266419 0.5023958)
(3.58 1.162391 0.7397645)
(3.58 1.027609 0.7397645)
(3.58 1.016419 0.7523958)
(3.58 0.7776089 0.9897645)
(3.58 0.7664186 1.002396)
(3.58 0.9123911 0.9897645)
(3.58 1.502531 0.3880181)
(3.58 1.502531 0.2619819)
(3.58 1.252531 0.5119819)
(3.58 1.252531 0.6380181)
(3.58 1.002531 0.8880181)
(3.58 1.002531 0.7619819)
(3.58 0.7525306 1.011982)
(3.58 1.654549 0.2248223)
(3.58 1.65051 0.2084376)
(3.58 1.535451 0.2248223)
(3.58 1.285451 0.4748223)
(3.58 1.404549 0.4748223)
(3.58 1.035451 0.7248223)
(3.58 1.154549 0.7248223)
(3.58 0.7854511 0.9748223)
(3.58 0.9045489 0.9748223)
(3.58 1.236752 0.5179659)
(3.58 1.236752 0.6320341)
(3.58 1.486752 0.3820341)
(3.58 1.486752 0.2679659)
(3.58 0.9867521 0.7679659)
(3.58 0.9867521 0.8820341)
(3.58 0.9532479 1.017966)
(3.58 0.7367521 1.017966)
(3.58 1.40051 0.4584376)
(3.58 1.28949 0.4584376)
(3.58 1.53949 0.2084376)
(3.58 1.03949 0.7084376)
(3.58 1.15051 0.7084376)
(3.58 1.15051 0.6915624)
(3.58 0.7894896 0.9584376)
(3.58 0.9005104 0.9584376)
(3.58 1.22 0.52)
(3.58 1.22 0.63)
(3.58 1.47 0.27)
(3.58 1.47 0.38)
(3.58 0.97 0.77)
(3.58 0.97 0.88)
(3.58 0.72 1.02)
(3.58 1.65051 0.1915624)
(3.58 1.53949 0.1915624)
(3.58 1.40051 0.4415624)
(3.58 1.404549 0.4251777)
(3.58 1.28949 0.4415624)
(3.58 1.154549 0.6751777)
(3.58 1.03949 0.6915624)
(3.58 0.7894896 0.9415624)
(3.58 0.9005104 0.9415624)
(3.58 0.9045489 0.9251777)
(3.58 1.203248 0.6320341)
(3.58 1.203248 0.5179659)
(3.58 1.453248 0.3820341)
(3.58 1.453248 0.2679659)
(3.58 0.9532479 0.7679659)
(3.58 0.9532479 0.8820341)
(3.58 1.285451 0.4251777)
(3.58 1.654549 0.1751777)
(3.58 1.662391 0.1602355)
(3.58 1.535451 0.1751777)
(3.58 1.035451 0.6751777)
(3.58 0.7854511 0.9251777)
(3.58 0.9123911 0.9102355)
(3.58 1.423581 0.3976042)
(3.58 1.437469 0.3880181)
(3.58 1.437469 0.2619819)
(3.58 0.9374694 0.7619819)
(3.58 0.9235814 0.8976042)
(3.58 0.9374694 0.8880181)
(3.58 1.187469 0.6380181)
(3.58 1.187469 0.5119819)
(3.58 1.673581 0.1476042)
(3.58 1.527609 0.1602355)
(3.58 1.412391 0.4102355)
(3.58 1.277609 0.4102355)
(3.58 1.027609 0.6602355)
(3.58 1.162391 0.6602355)
(3.58 0.7776089 0.9102355)
(3.58 1.173581 0.6476042)
(3.58 1.173581 0.5023958)
(3.58 1.423581 0.2523958)
(3.58 0.9235814 0.7523958)
(3.58 1.266419 0.3976042)
(3.58 1.516419 0.1476042)
(3.58 1.016419 0.6476042)
(3.58 0.7664186 0.8976042)
(3.58 1.687469 0.1380181)
(3.58 1.502531 0.1380181)
(3.58 1.486752 0.1320341)
(3.58 1.703248 0.1320341)
(3.58 1.47 0.13)
(3.58 1.162391 0.4897645)
(3.58 1.027609 0.4897645)
(3.58 1.016419 0.5023958)
(3.58 1.412391 0.2397645)
(3.58 1.277609 0.2397645)
(3.58 1.266419 0.2523958)
(3.58 0.5276089 0.9897645)
(3.58 0.5164186 1.002396)
(3.58 0.6735814 1.002396)
(3.58 0.6623911 0.9897645)
(3.58 0.7776089 0.7397645)
(3.58 0.7664186 0.7523958)
(3.58 0.9123911 0.7397645)
(3.58 1.252531 0.2619819)
(3.58 1.252531 0.3880181)
(3.58 0.5025306 1.011982)
(3.58 0.6874694 1.011982)
(3.58 0.7525306 0.8880181)
(3.58 0.7525306 0.7619819)
(3.58 1.002531 0.6380181)
(3.58 1.002531 0.5119819)
(3.58 1.404549 0.2248223)
(3.58 1.285451 0.2248223)
(3.58 1.035451 0.4748223)
(3.58 1.154549 0.4748223)
(3.58 0.5354511 0.9748223)
(3.58 0.6545489 0.9748223)
(3.58 0.6505104 0.9584376)
(3.58 0.7854511 0.7248223)
(3.58 0.9045489 0.7248223)
(3.58 1.236752 0.2679659)
(3.58 1.236752 0.3820341)
(3.58 0.9867521 0.5179659)
(3.58 0.9867521 0.6320341)
(3.58 0.4867521 1.017966)
(3.58 0.7032479 1.017966)
(3.58 0.7367521 0.7679659)
(3.58 0.7367521 0.8820341)
(3.58 1.40051 0.2084376)
(3.58 1.28949 0.2084376)
(3.58 1.15051 0.4584376)
(3.58 1.03949 0.4584376)
(3.58 0.5394896 0.9584376)
(3.58 0.7894896 0.7084376)
(3.58 0.9005104 0.7084376)
(3.58 0.9005104 0.6915624)
(3.58 1.22 0.27)
(3.58 1.22 0.38)
(3.58 0.47 1.02)
(3.58 0.72 0.77)
(3.58 0.7032479 0.8820341)
(3.58 0.72 0.88)
(3.58 0.97 0.52)
(3.58 0.97 0.63)
(3.58 1.40051 0.1915624)
(3.58 1.28949 0.1915624)
(3.58 0.5394896 0.9415624)
(3.58 0.6505104 0.9415624)
(3.58 0.7894896 0.6915624)
(3.58 1.03949 0.4415624)
(3.58 1.15051 0.4415624)
(3.58 1.203248 0.2679659)
(3.58 1.203248 0.3820341)
(3.58 0.7032479 0.7679659)
(3.58 0.9532479 0.5179659)
(3.58 0.9532479 0.6320341)
(3.58 1.404549 0.1751777)
(3.58 1.285451 0.1751777)
(3.58 0.5354511 0.9251777)
(3.58 0.6545489 0.9251777)
(3.58 0.6623911 0.9102355)
(3.58 0.9045489 0.6751777)
(3.58 0.9123911 0.6602355)
(3.58 0.7854511 0.6751777)
(3.58 1.035451 0.4251777)
(3.58 1.154549 0.4251777)
(3.58 1.187469 0.2619819)
(3.58 1.187469 0.3880181)
(3.58 0.6874694 0.7619819)
(3.58 0.6735814 0.8976042)
(3.58 0.6874694 0.8880181)
(3.58 0.9374694 0.6380181)
(3.58 0.9374694 0.5119819)
(3.58 1.412391 0.1602355)
(3.58 1.423581 0.1476042)
(3.58 1.277609 0.1602355)
(3.58 0.5276089 0.9102355)
(3.58 0.9235814 0.6476042)
(3.58 0.7776089 0.6602355)
(3.58 1.162391 0.4102355)
(3.58 1.027609 0.4102355)
(3.58 1.173581 0.3976042)
(3.58 1.173581 0.2523958)
(3.58 0.9235814 0.5023958)
(3.58 0.6735814 0.7523958)
(3.58 1.266419 0.1476042)
(3.58 0.5164186 0.8976042)
(3.58 0.7664186 0.6476042)
(3.58 1.016419 0.3976042)
(3.58 1.252531 0.1380181)
(3.58 1.437469 0.1380181)
(3.58 1.453248 0.1320341)
(3.58 1.236752 0.1320341)
(3.58 1.22 0.13)
(3.58 0.9123911 0.4897645)
(3.58 0.7776089 0.4897645)
(3.58 0.7664186 0.5023958)
(3.58 1.162391 0.2397645)
(3.58 1.027609 0.2397645)
(3.58 1.016419 0.2523958)
(3.58 0.4235814 1.002396)
(3.58 0.4123911 0.9897645)
(3.58 0.4045489 0.9748223)
(3.58 0.2776089 0.9897645)
(3.58 0.2664186 1.002396)
(3.58 0.5276089 0.7397645)
(3.58 0.5164186 0.7523958)
(3.58 0.6623911 0.7397645)
(3.58 1.002531 0.2619819)
(3.58 1.002531 0.3880181)
(3.58 0.7367521 0.6320341)
(3.58 0.7525306 0.6380181)
(3.58 0.7525306 0.5119819)
(3.58 0.4374694 1.011982)
(3.58 0.2525306 1.011982)
(3.58 0.4867521 0.8820341)
(3.58 0.5025306 0.8880181)
(3.58 0.5025306 0.7619819)
(3.58 1.154549 0.2248223)
(3.58 1.035451 0.2248223)
(3.58 0.7854511 0.4748223)
(3.58 0.9045489 0.4748223)
(3.58 0.9005104 0.4584376)
(3.58 0.4005104 0.9584376)
(3.58 0.2854511 0.9748223)
(3.58 0.5354511 0.7248223)
(3.58 0.6545489 0.7248223)
(3.58 0.7367521 0.5179659)
(3.58 0.72 0.63)
(3.58 0.9867521 0.2679659)
(3.58 0.97 0.38)
(3.58 0.9867521 0.3820341)
(3.58 0.4532479 1.017966)
(3.58 0.2367521 1.017966)
(3.58 0.4867521 0.7679659)
(3.58 0.7894896 0.4584376)
(3.58 1.15051 0.2084376)
(3.58 1.03949 0.2084376)
(3.58 0.2894896 0.9584376)
(3.58 0.5394896 0.7084376)
(3.58 0.6505104 0.7084376)
(3.58 0.6505104 0.6915624)
(3.58 0.97 0.27)
(3.58 0.72 0.52)
(3.58 0.4532479 0.8820341)
(3.58 0.47 0.88)
(3.58 0.47 0.77)
(3.58 1.03949 0.1915624)
(3.58 1.15051 0.1915624)
(3.58 1.154549 0.1751777)
(3.58 0.7894896 0.4415624)
(3.58 0.9005104 0.4415624)
(3.58 0.4005104 0.9415624)
(3.58 0.2894896 0.9415624)
(3.58 0.5394896 0.6915624)
(3.58 0.7032479 0.5179659)
(3.58 0.7032479 0.6320341)
(3.58 0.9532479 0.2679659)
(3.58 0.9374694 0.3880181)
(3.58 0.9532479 0.3820341)
(3.58 0.4532479 0.7679659)
(3.58 1.035451 0.1751777)
(3.58 0.7854511 0.4251777)
(3.58 0.9045489 0.4251777)
(3.58 0.4045489 0.9251777)
(3.58 0.4123911 0.9102355)
(3.58 0.2854511 0.9251777)
(3.58 0.5354511 0.6751777)
(3.58 0.6545489 0.6751777)
(3.58 0.6623911 0.6602355)
(3.58 0.22 1.02)
(3.58 0.2032479 1.017966)
(3.58 0.9374694 0.2619819)
(3.58 0.6874694 0.6380181)
(3.58 0.6874694 0.5119819)
(3.58 0.1874694 1.011982)
(3.58 0.4374694 0.8880181)
(3.58 0.4374694 0.7619819)
(3.58 1.162391 0.1602355)
(3.58 1.173581 0.1476042)
(3.58 1.027609 0.1602355)
(3.58 0.7776089 0.4102355)
(3.58 0.9123911 0.4102355)
(3.58 0.4235814 0.8976042)
(3.58 0.2776089 0.9102355)
(3.58 0.5276089 0.6602355)
(3.58 0.6735814 0.6476042)
(3.58 0.9235814 0.2523958)
(3.58 0.9235814 0.3976042)
(3.58 0.6735814 0.5023958)
(3.58 0.1735814 1.002396)
(3.58 0.4235814 0.7523958)
(3.58 1.016419 0.1476042)
(3.58 0.7664186 0.3976042)
(3.58 0.2664186 0.8976042)
(3.58 0.5164186 0.6476042)
(3.58 0.1623911 0.9897645)
(3.58 1.187469 0.1380181)
(3.58 1.002531 0.1380181)
(3.58 0.1545489 0.9748223)
(3.58 1.203248 0.1320341)
(3.58 0.9867521 0.1320341)
(3.58 0.1505104 0.9584376)
(3.58 0.97 0.13)
(3.58 0.1505104 0.9415624)
(3.58 0.5276089 0.4897645)
(3.58 0.5164186 0.5023958)
(3.58 0.6623911 0.4897645)
(3.58 0.9123911 0.2397645)
(3.58 0.7776089 0.2397645)
(3.58 0.7664186 0.2523958)
(3.58 0.2776089 0.7397645)
(3.58 0.2664186 0.7523958)
(3.58 0.4123911 0.7397645)
(3.58 0.5025306 0.5119819)
(3.58 0.5025306 0.6380181)
(3.58 0.7525306 0.3880181)
(3.58 0.7525306 0.2619819)
(3.58 0.2525306 0.7619819)
(3.58 0.2525306 0.8880181)
(3.58 0.5354511 0.4748223)
(3.58 0.6545489 0.4748223)
(3.58 0.6505104 0.4584376)
(3.58 0.7854511 0.2248223)
(3.58 0.9045489 0.2248223)
(3.58 0.9005104 0.2084376)
(3.58 0.2854511 0.7248223)
(3.58 0.4045489 0.7248223)
(3.58 0.4005104 0.7084376)
(3.58 0.4867521 0.5179659)
(3.58 0.47 0.63)
(3.58 0.4867521 0.6320341)
(3.58 0.7367521 0.3820341)
(3.58 0.7367521 0.2679659)
(3.58 0.72 0.38)
(3.58 0.2367521 0.7679659)
(3.58 0.22 0.88)
(3.58 0.2367521 0.8820341)
(3.58 0.5394896 0.4584376)
(3.58 0.7894896 0.2084376)
(3.58 0.2894896 0.7084376)
(3.58 0.4005104 0.6915624)
(3.58 0.72 0.27)
(3.58 0.47 0.52)
(3.58 0.22 0.77)
(3.58 0.7894896 0.1915624)
(3.58 0.9005104 0.1915624)
(3.58 0.6505104 0.4415624)
(3.58 0.5394896 0.4415624)
(3.58 0.2894896 0.6915624)
(3.58 0.4532479 0.5179659)
(3.58 0.4532479 0.6320341)
(3.58 0.7032479 0.2679659)
(3.58 0.6874694 0.3880181)
(3.58 0.7032479 0.3820341)
(3.58 0.1874694 0.8880181)
(3.58 0.2032479 0.8820341)
(3.58 0.2032479 0.7679659)
(3.58 0.5354511 0.4251777)
(3.58 0.6545489 0.4251777)
(3.58 0.9045489 0.1751777)
(3.58 0.7854511 0.1751777)
(3.58 0.2854511 0.6751777)
(3.58 0.4045489 0.6751777)
(3.58 0.4123911 0.6602355)
(3.58 0.4374694 0.5119819)
(3.58 0.4374694 0.6380181)
(3.58 0.6874694 0.2619819)
(3.58 0.1874694 0.7619819)
(3.58 0.5276089 0.4102355)
(3.58 0.6623911 0.4102355)
(3.58 0.6735814 0.3976042)
(3.58 0.7776089 0.1602355)
(3.58 0.9123911 0.1602355)
(3.58 0.9235814 0.1476042)
(3.58 0.2776089 0.6602355)
(3.58 0.4235814 0.5023958)
(3.58 0.4235814 0.6476042)
(3.58 0.6735814 0.2523958)
(3.58 0.1735814 0.8976042)
(3.58 0.1735814 0.7523958)
(3.58 0.9374694 0.1380181)
(3.58 0.7664186 0.1476042)
(3.58 0.5164186 0.3976042)
(3.58 0.2664186 0.6476042)
(3.58 0.1623911 0.9102355)
(3.58 0.1623911 0.7397645)
(3.58 0.9532479 0.1320341)
(3.58 0.7525306 0.1380181)
(3.58 0.1545489 0.9251777)
(3.58 0.1545489 0.7248223)
(3.58 0.7367521 0.1320341)
(3.58 0.1505104 0.7084376)
(3.58 0.72 0.13)
(3.58 0.1505104 0.6915624)
(3.58 0.4123911 0.4897645)
(3.58 0.2776089 0.4897645)
(3.58 0.2664186 0.5023958)
(3.58 0.5276089 0.2397645)
(3.58 0.5164186 0.2523958)
(3.58 0.6623911 0.2397645)
(3.58 0.2525306 0.5119819)
(3.58 0.2367521 0.6320341)
(3.58 0.2525306 0.6380181)
(3.58 0.5025306 0.2619819)
(3.58 0.5025306 0.3880181)