/*--------------------------------*- C++ -*----------------------------------*\
  =========                 |
  \\      /  F ield         | OpenFOAM: The Open Source CFD Toolbox
   \\    /   O peration     | Website:  https://openfoam.org
    \\  /    A nd           | Version:  dev
     \\/     M anipulation  |
\*---------------------------------------------------------------------------*/
FoamFile
{
    format      ascii;
    class       featureEdgeMesh;
    location    "constant/triSurface";
    object      inlet.eMesh;
}
// * * * * * * * * * * * * * * * * * * * * * * * * * * * * * * * * * * * * * //


// points:

70
(
(-0.40000001 1.601743 0.82125682)
(-0.40000001 1.608023 0.8185727)
(-0.40000001 1.614037 0.81533653)
(-0.40000001 1.58859 0.82488692)
(-0.40000001 1.595248 0.82336718)
(-0.40000001 1.5359631 0.81533653)
(-0.40000001 1.541977 0.8185727)
(-0.40000001 1.548257 0.82125682)
(-0.40000001 1.5681781 0.82580358)
(-0.40000001 1.575 0.82611001)
(-0.40000001 1.56141 0.82488692)
(-0.40000001 1.554752 0.82336718)
(-0.40000001 1.530264 0.81157428)
(-0.40000001 1.5199879 0.80259681)
(-0.40000001 1.524924 0.8073163)
(-0.40000001 1.511481 0.79192883)
(-0.40000001 1.5154949 0.79745382)
(-0.40000001 1.507978 0.78606611)
(-0.40000001 1.505015 0.77991313)
(-0.40000001 1.502615 0.77351928)
(-0.40000001 1.500798 0.76693612)
(-0.40000001 1.499579 0.76021647)
(-0.40000001 1.4989671 0.75341469)
(-0.40000001 1.4989671 0.74658531)
(-0.40000001 1.499579 0.73978353)
(-0.40000001 1.500798 0.73306388)
(-0.40000001 1.502615 0.72648072)
(-0.40000001 1.505015 0.72008687)
(-0.40000001 1.507978 0.71393389)
(-0.40000001 1.511481 0.70807117)
(-0.40000001 1.5154949 0.70254618)
(-0.40000001 1.5199879 0.69740319)
(-0.40000001 1.524924 0.6926837)
(-0.40000001 1.530264 0.68842572)
(-0.40000001 1.5359631 0.68466347)
(-0.40000001 1.541977 0.6814273)
(-0.40000001 1.548257 0.67874318)
(-0.40000001 1.554752 0.67663282)
(-0.40000001 1.56141 0.67511308)
(-0.40000001 1.5681781 0.67419642)
(-0.40000001 1.575 0.67388999)
(-0.40000001 1.581822 0.67419642)
(-0.40000001 1.58859 0.67511308)
(-0.40000001 1.595248 0.67663282)
(-0.40000001 1.601743 0.67874318)
(-0.40000001 1.608023 0.6814273)
(-0.40000001 1.614037 0.68466347)
(-0.40000001 1.619736 0.68842572)
(-0.40000001 1.6250761 0.6926837)
(-0.40000001 1.630012 0.69740319)
(-0.40000001 1.634505 0.70254618)
(-0.40000001 1.638519 0.70807117)
(-0.40000001 1.642022 0.71393389)
(-0.40000001 1.644985 0.72008687)
(-0.40000001 1.647385 0.72648072)
(-0.40000001 1.649202 0.73306388)
(-0.40000001 1.650421 0.73978353)
(-0.40000001 1.651033 0.74658531)
(-0.40000001 1.651033 0.75341469)
(-0.40000001 1.650421 0.76021647)
(-0.40000001 1.649202 0.76693612)
(-0.40000001 1.647385 0.77351928)
(-0.40000001 1.644985 0.77991313)
(-0.40000001 1.642022 0.78606611)
(-0.40000001 1.638519 0.79192883)
(-0.40000001 1.634505 0.79745382)
(-0.40000001 1.630012 0.80259681)
(-0.40000001 1.6250761 0.8073163)
(-0.40000001 1.619736 0.81157428)
(-0.40000001 1.581822 0.82580358)
)


// edges:

70
(
(0 1)
(1 2)
(3 4)
(4 0)
(5 6)
(6 7)
(8 9)
(10 8)
(11 10)
(7 11)
(12 5)
(13 14)
(14 12)
(15 16)
(16 13)
(17 15)
(18 17)
(19 18)
(20 19)
(21 20)
(22 21)
(23 22)
(24 23)
(25 24)
(26 25)
(27 26)
(28 27)
(29 28)
(30 29)
(31 30)
(32 31)
(33 32)
(34 33)
(35 34)
(36 35)
(37 36)
(38 37)
(39 38)
(40 39)
(41 40)
(42 41)
(43 42)
(44 43)
(45 44)
(46 45)
(47 46)
(48 47)
(49 48)
(50 49)
(51 50)
(52 51)
(53 52)
(54 53)
(55 54)
(56 55)
(57 56)
(58 57)
(59 58)
(60 59)
(61 60)
(62 61)
(63 62)
(64 63)
(65 64)
(66 65)
(67 66)
(68 67)
(2 68)
(69 3)
(9 69)
)

// * * * * * * * * * * * * * * * * * * * * * * * * * * * * * * * * * * * * * //


// ************************************************************************* //
