/*--------------------------------*- C++ -*----------------------------------*\
  =========                 |
  \\      /  F ield         | OpenFOAM: The Open Source CFD Toolbox
   \\    /   O peration     | Website:  https://openfoam.org
    \\  /    A nd           | Version:  7
     \\/     M anipulation  |
\*---------------------------------------------------------------------------*/
FoamFile
{
    version     2.0;
    format      ascii;
    class       featureEdgeMesh;
    location    "constant/triSurface";
    object      inlet.eMesh;
}
// * * * * * * * * * * * * * * * * * * * * * * * * * * * * * * * * * * * * * //


// points:

70
(
(-0.4 1.601743 0.8212568)
(-0.4 1.608023 0.8185727)
(-0.4 1.614037 0.8153365)
(-0.4 1.58859 0.8248869)
(-0.4 1.595248 0.8233672)
(-0.4 1.535963 0.8153365)
(-0.4 1.541977 0.8185727)
(-0.4 1.548257 0.8212568)
(-0.4 1.568178 0.8258036)
(-0.4 1.575 0.82611)
(-0.4 1.56141 0.8248869)
(-0.4 1.554752 0.8233672)
(-0.4 1.530264 0.8115743)
(-0.4 1.519988 0.8025968)
(-0.4 1.524924 0.8073163)
(-0.4 1.511481 0.7919288)
(-0.4 1.515495 0.7974538)
(-0.4 1.507978 0.7860661)
(-0.4 1.505015 0.7799131)
(-0.4 1.502615 0.7735193)
(-0.4 1.500798 0.7669361)
(-0.4 1.499579 0.7602165)
(-0.4 1.498967 0.7534147)
(-0.4 1.498967 0.7465853)
(-0.4 1.499579 0.7397835)
(-0.4 1.500798 0.7330639)
(-0.4 1.502615 0.7264807)
(-0.4 1.505015 0.7200869)
(-0.4 1.507978 0.7139339)
(-0.4 1.511481 0.7080712)
(-0.4 1.515495 0.7025462)
(-0.4 1.519988 0.6974032)
(-0.4 1.524924 0.6926837)
(-0.4 1.530264 0.6884257)
(-0.4 1.535963 0.6846635)
(-0.4 1.541977 0.6814273)
(-0.4 1.548257 0.6787432)
(-0.4 1.554752 0.6766328)
(-0.4 1.56141 0.6751131)
(-0.4 1.568178 0.6741964)
(-0.4 1.575 0.67389)
(-0.4 1.581822 0.6741964)
(-0.4 1.58859 0.6751131)
(-0.4 1.595248 0.6766328)
(-0.4 1.601743 0.6787432)
(-0.4 1.608023 0.6814273)
(-0.4 1.614037 0.6846635)
(-0.4 1.619736 0.6884257)
(-0.4 1.625076 0.6926837)
(-0.4 1.630012 0.6974032)
(-0.4 1.634505 0.7025462)
(-0.4 1.638519 0.7080712)
(-0.4 1.642022 0.7139339)
(-0.4 1.644985 0.7200869)
(-0.4 1.647385 0.7264807)
(-0.4 1.649202 0.7330639)
(-0.4 1.650421 0.7397835)
(-0.4 1.651033 0.7465853)
(-0.4 1.651033 0.7534147)
(-0.4 1.650421 0.7602165)
(-0.4 1.649202 0.7669361)
(-0.4 1.647385 0.7735193)
(-0.4 1.644985 0.7799131)
(-0.4 1.642022 0.7860661)
(-0.4 1.638519 0.7919288)
(-0.4 1.634505 0.7974538)
(-0.4 1.630012 0.8025968)
(-0.4 1.625076 0.8073163)
(-0.4 1.619736 0.8115743)
(-0.4 1.581822 0.8258036)
)


// edges:

70
(
(0 1)
(1 2)
(3 4)
(4 0)
(5 6)
(6 7)
(8 9)
(10 8)
(11 10)
(7 11)
(12 5)
(13 14)
(14 12)
(15 16)
(16 13)
(17 15)
(18 17)
(19 18)
(20 19)
(21 20)
(22 21)
(23 22)
(24 23)
(25 24)
(26 25)
(27 26)
(28 27)
(29 28)
(30 29)
(31 30)
(32 31)
(33 32)
(34 33)
(35 34)
(36 35)
(37 36)
(38 37)
(39 38)
(40 39)
(41 40)
(42 41)
(43 42)
(44 43)
(45 44)
(46 45)
(47 46)
(48 47)
(49 48)
(50 49)
(51 50)
(52 51)
(53 52)
(54 53)
(55 54)
(56 55)
(57 56)
(58 57)
(59 58)
(60 59)
(61 60)
(62 61)
(63 62)
(64 63)
(65 64)
(66 65)
(67 66)
(68 67)
(2 68)
(69 3)
(9 69)
)

// * * * * * * * * * * * * * * * * * * * * * * * * * * * * * * * * * * * * * //


// ************************************************************************* //
