/*--------------------------------*- C++ -*----------------------------------*\
  =========                 |
  \\      /  F ield         | OpenFOAM: The Open Source CFD Toolbox
   \\    /   O peration     | Website:  https://openfoam.org
    \\  /    A nd           | Version:  7
     \\/     M anipulation  |
\*---------------------------------------------------------------------------*/
FoamFile
{
    version     2.0;
    format      ascii;
    class       featureEdgeMesh;
    location    "constant/triSurface";
    object      outlet_princi.eMesh;
}
// * * * * * * * * * * * * * * * * * * * * * * * * * * * * * * * * * * * * * //


// points:

70
(
(12.9 1.650322 0.6220156)
(12.9 1.643564 0.6284776)
(12.9 1.636253 0.6343077)
(12.9 1.584341 0.6537905)
(12.9 1.575 0.65421)
(12.9 1.565659 0.6537905)
(12.9 1.556393 0.6525353)
(12.9 1.547276 0.6504546)
(12.9 1.538383 0.647565)
(12.9 1.529785 0.64389)
(12.9 1.521551 0.6394589)
(12.9 1.513747 0.6343077)
(12.9 1.506436 0.6284776)
(12.9 1.499678 0.6220156)
(12.9 1.493525 0.6149739)
(12.9 1.488029 0.607409)
(12.9 1.483233 0.5993819)
(12.9 1.479176 0.5909571)
(12.9 1.47589 0.5822027)
(12.9 1.473403 0.5731889)
(12.9 1.471733 0.5639884)
(12.9 1.470895 0.5546754)
(12.9 1.470895 0.5453246)
(12.9 1.471733 0.5360116)
(12.9 1.473403 0.5268111)
(12.9 1.47589 0.5177973)
(12.9 1.479176 0.5090429)
(12.9 1.483233 0.5006181)
(12.9 1.488029 0.492591)
(12.9 1.493525 0.4850261)
(12.9 1.499678 0.4779844)
(12.9 1.506436 0.4715224)
(12.9 1.513747 0.4656923)
(12.9 1.521551 0.4605411)
(12.9 1.529785 0.45611)
(12.9 1.538383 0.452435)
(12.9 1.547276 0.4495454)
(12.9 1.556393 0.4474647)
(12.9 1.565659 0.4462095)
(12.9 1.575 0.44579)
(12.9 1.584341 0.4462095)
(12.9 1.593607 0.4474647)
(12.9 1.602724 0.4495454)
(12.9 1.611617 0.452435)
(12.9 1.620215 0.45611)
(12.9 1.628449 0.4605411)
(12.9 1.636253 0.4656923)
(12.9 1.643564 0.4715224)
(12.9 1.650322 0.4779844)
(12.9 1.656475 0.4850261)
(12.9 1.661971 0.492591)
(12.9 1.666767 0.5006181)
(12.9 1.670824 0.5090429)
(12.9 1.67411 0.5177973)
(12.9 1.676597 0.5268111)
(12.9 1.678267 0.5360116)
(12.9 1.679105 0.5453246)
(12.9 1.679105 0.5546754)
(12.9 1.678267 0.5639884)
(12.9 1.676597 0.5731889)
(12.9 1.67411 0.5822027)
(12.9 1.670824 0.5909571)
(12.9 1.666767 0.5993819)
(12.9 1.661971 0.607409)
(12.9 1.656475 0.6149739)
(12.9 1.628449 0.6394589)
(12.9 1.620215 0.64389)
(12.9 1.611617 0.647565)
(12.9 1.602724 0.6504546)
(12.9 1.593607 0.6525353)
)


// edges:

70
(
(0 1)
(1 2)
(3 4)
(4 5)
(5 6)
(6 7)
(7 8)
(8 9)
(9 10)
(10 11)
(11 12)
(12 13)
(13 14)
(14 15)
(15 16)
(16 17)
(17 18)
(18 19)
(19 20)
(20 21)
(21 22)
(22 23)
(23 24)
(24 25)
(25 26)
(26 27)
(27 28)
(28 29)
(29 30)
(30 31)
(31 32)
(32 33)
(33 34)
(34 35)
(35 36)
(36 37)
(37 38)
(38 39)
(39 40)
(40 41)
(41 42)
(42 43)
(43 44)
(44 45)
(45 46)
(46 47)
(47 48)
(48 49)
(49 50)
(50 51)
(51 52)
(52 53)
(53 54)
(54 55)
(55 56)
(56 57)
(57 58)
(58 59)
(59 60)
(60 61)
(61 62)
(62 63)
(63 64)
(64 0)
(2 65)
(65 66)
(66 67)
(67 68)
(68 69)
(69 3)
)

// * * * * * * * * * * * * * * * * * * * * * * * * * * * * * * * * * * * * * //


// ************************************************************************* //
