/*--------------------------------*- C++ -*----------------------------------*\
  =========                 |
  \\      /  F ield         | OpenFOAM: The Open Source CFD Toolbox
   \\    /   O peration     | Website:  https://openfoam.org
    \\  /    A nd           | Version:  dev
     \\/     M anipulation  |
\*---------------------------------------------------------------------------*/
FoamFile
{
    format      ascii;
    class       featureEdgeMesh;
    location    "constant/triSurface";
    object      outlet1.eMesh;
}
// * * * * * * * * * * * * * * * * * * * * * * * * * * * * * * * * * * * * * //


// points:

70
(
(4.8004098 -0.1 -2.7321129)
(4.7937522 -0.1 -2.733633)
(4.7872572 -0.1 -2.735743)
(4.8140001 -0.1 -2.73089)
(4.807178 -0.1 -2.7311959)
(4.7809768 -0.1 -2.7384269)
(4.7749629 -0.1 -2.741663)
(4.7692642 -0.1 -2.7454259)
(4.7639241 -0.1 -2.7496841)
(4.7589879 -0.1 -2.7544031)
(4.7544951 -0.1 -2.759546)
(4.7504811 -0.1 -2.7650709)
(4.7469778 -0.1 -2.7709341)
(4.7440152 -0.1 -2.777087)
(4.7416148 -0.1 -2.7834809)
(4.7397981 -0.1 -2.7900641)
(4.7385788 -0.1 -2.7967839)
(4.737967 -0.1 -2.8035851)
(4.737967 -0.1 -2.810415)
(4.7385788 -0.1 -2.8172159)
(4.7397981 -0.1 -2.823936)
(4.7416148 -0.1 -2.830519)
(4.7440152 -0.1 -2.8369131)
(4.7469778 -0.1 -2.843066)
(4.7504811 -0.1 -2.8489289)
(4.7544951 -0.1 -2.854454)
(4.7589879 -0.1 -2.859597)
(4.7639241 -0.1 -2.864316)
(4.7692642 -0.1 -2.8685739)
(4.7749629 -0.1 -2.8723371)
(4.7809768 -0.1 -2.8755729)
(4.7872572 -0.1 -2.878257)
(4.7937522 -0.1 -2.880367)
(4.8004098 -0.1 -2.881887)
(4.807178 -0.1 -2.8828039)
(4.8140001 -0.1 -2.88311)
(4.8208218 -0.1 -2.8828039)
(4.82759 -0.1 -2.881887)
(4.8342481 -0.1 -2.880367)
(4.8407431 -0.1 -2.878257)
(4.847023 -0.1 -2.8755729)
(4.8530369 -0.1 -2.8723371)
(4.858736 -0.1 -2.8685739)
(4.8640761 -0.1 -2.864316)
(4.8690119 -0.1 -2.859597)
(4.8735051 -0.1 -2.854454)
(4.8775191 -0.1 -2.8489289)
(4.881022 -0.1 -2.843066)
(4.883985 -0.1 -2.8369131)
(4.886385 -0.1 -2.830519)
(4.8882022 -0.1 -2.823936)
(4.889421 -0.1 -2.8172159)
(4.8900328 -0.1 -2.810415)
(4.8900328 -0.1 -2.8035851)
(4.889421 -0.1 -2.7967839)
(4.8882022 -0.1 -2.7900641)
(4.886385 -0.1 -2.7834809)
(4.883985 -0.1 -2.777087)
(4.881022 -0.1 -2.7709341)
(4.8775191 -0.1 -2.7650709)
(4.8735051 -0.1 -2.759546)
(4.8690119 -0.1 -2.7544031)
(4.8640761 -0.1 -2.7496841)
(4.858736 -0.1 -2.7454259)
(4.8530369 -0.1 -2.741663)
(4.847023 -0.1 -2.7384269)
(4.8407431 -0.1 -2.735743)
(4.8342481 -0.1 -2.733633)
(4.82759 -0.1 -2.7321129)
(4.8208218 -0.1 -2.7311959)
)


// edges:

70
(
(0 1)
(1 2)
(3 4)
(4 0)
(2 5)
(5 6)
(6 7)
(7 8)
(8 9)
(9 10)
(10 11)
(11 12)
(12 13)
(13 14)
(14 15)
(15 16)
(16 17)
(17 18)
(18 19)
(19 20)
(20 21)
(21 22)
(22 23)
(23 24)
(24 25)
(25 26)
(26 27)
(27 28)
(28 29)
(29 30)
(30 31)
(31 32)
(32 33)
(33 34)
(34 35)
(35 36)
(36 37)
(37 38)
(38 39)
(39 40)
(40 41)
(41 42)
(42 43)
(43 44)
(44 45)
(45 46)
(46 47)
(47 48)
(48 49)
(49 50)
(50 51)
(51 52)
(52 53)
(53 54)
(54 55)
(55 56)
(56 57)
(57 58)
(58 59)
(59 60)
(60 61)
(61 62)
(62 63)
(63 64)
(64 65)
(65 66)
(66 67)
(67 68)
(68 69)
(69 3)
)

// * * * * * * * * * * * * * * * * * * * * * * * * * * * * * * * * * * * * * //


// ************************************************************************* //
