/*--------------------------------*- C++ -*----------------------------------*\
  =========                 |
  \\      /  F ield         | OpenFOAM: The Open Source CFD Toolbox
   \\    /   O peration     | Website:  https://openfoam.org
    \\  /    A nd           | Version:  dev
     \\/     M anipulation  |
\*---------------------------------------------------------------------------*/
FoamFile
{
    format      ascii;
    class       featureEdgeMesh;
    location    "constant/triSurface";
    object      outlet_princi.eMesh;
}
// * * * * * * * * * * * * * * * * * * * * * * * * * * * * * * * * * * * * * //


// points:

70
(
(12.9 1.650322 0.6220156)
(12.9 1.643564 0.62847757)
(12.9 1.636253 0.63430768)
(12.9 1.584341 0.65379047)
(12.9 1.575 0.65420997)
(12.9 1.565659 0.65379047)
(12.9 1.556393 0.65253532)
(12.9 1.547276 0.65045458)
(12.9 1.538383 0.64756501)
(12.9 1.529785 0.64389002)
(12.9 1.521551 0.63945889)
(12.9 1.513747 0.63430768)
(12.9 1.506436 0.62847757)
(12.9 1.499678 0.6220156)
(12.9 1.493525 0.6149739)
(12.9 1.488029 0.607409)
(12.9 1.483233 0.59938192)
(12.9 1.479176 0.59095711)
(12.9 1.47589 0.58220267)
(12.9 1.473403 0.5731889)
(12.9 1.471733 0.56398839)
(12.9 1.4708951 0.5546754)
(12.9 1.4708951 0.54532462)
(12.9 1.471733 0.53601158)
(12.9 1.473403 0.52681112)
(12.9 1.47589 0.51779729)
(12.9 1.479176 0.50904292)
(12.9 1.483233 0.5006181)
(12.9 1.488029 0.49259099)
(12.9 1.493525 0.48502609)
(12.9 1.499678 0.4779844)
(12.9 1.506436 0.47152239)
(12.9 1.513747 0.46569231)
(12.9 1.521551 0.4605411)
(12.9 1.529785 0.45611)
(12.9 1.538383 0.45243499)
(12.9 1.547276 0.44954541)
(12.9 1.556393 0.4474647)
(12.9 1.565659 0.44620949)
(12.9 1.575 0.44578999)
(12.9 1.584341 0.44620949)
(12.9 1.5936069 0.4474647)
(12.9 1.602724 0.44954541)
(12.9 1.611617 0.45243499)
(12.9 1.6202151 0.45611)
(12.9 1.628449 0.4605411)
(12.9 1.636253 0.46569231)
(12.9 1.643564 0.47152239)
(12.9 1.650322 0.4779844)
(12.9 1.6564749 0.48502609)
(12.9 1.661971 0.49259099)
(12.9 1.666767 0.5006181)
(12.9 1.6708241 0.50904292)
(12.9 1.6741101 0.51779729)
(12.9 1.676597 0.52681112)
(12.9 1.678267 0.53601158)
(12.9 1.679105 0.54532462)
(12.9 1.679105 0.5546754)
(12.9 1.678267 0.56398839)
(12.9 1.676597 0.5731889)
(12.9 1.6741101 0.58220267)
(12.9 1.6708241 0.59095711)
(12.9 1.666767 0.59938192)
(12.9 1.661971 0.607409)
(12.9 1.6564749 0.6149739)
(12.9 1.628449 0.63945889)
(12.9 1.6202151 0.64389002)
(12.9 1.611617 0.64756501)
(12.9 1.602724 0.65045458)
(12.9 1.5936069 0.65253532)
)


// edges:

70
(
(0 1)
(1 2)
(3 4)
(4 5)
(5 6)
(6 7)
(7 8)
(8 9)
(9 10)
(10 11)
(11 12)
(12 13)
(13 14)
(14 15)
(15 16)
(16 17)
(17 18)
(18 19)
(19 20)
(20 21)
(21 22)
(22 23)
(23 24)
(24 25)
(25 26)
(26 27)
(27 28)
(28 29)
(29 30)
(30 31)
(31 32)
(32 33)
(33 34)
(34 35)
(35 36)
(36 37)
(37 38)
(38 39)
(39 40)
(40 41)
(41 42)
(42 43)
(43 44)
(44 45)
(45 46)
(46 47)
(47 48)
(48 49)
(49 50)
(50 51)
(51 52)
(52 53)
(53 54)
(54 55)
(55 56)
(56 57)
(57 58)
(58 59)
(59 60)
(60 61)
(61 62)
(62 63)
(63 64)
(64 0)
(2 65)
(65 66)
(66 67)
(67 68)
(68 69)
(69 3)
)

// * * * * * * * * * * * * * * * * * * * * * * * * * * * * * * * * * * * * * //


// ************************************************************************* //
