/*--------------------------------*- C++ -*----------------------------------*\
  =========                 |
  \\      /  F ield         | OpenFOAM: The Open Source CFD Toolbox
   \\    /   O peration     | Website:  https://openfoam.org
    \\  /    A nd           | Version:  7
     \\/     M anipulation  |
\*---------------------------------------------------------------------------*/
FoamFile
{
    version     2.0;
    format      ascii;
    class       featureEdgeMesh;
    location    "constant/triSurface";
    object      pipe3.eMesh;
}
// * * * * * * * * * * * * * * * * * * * * * * * * * * * * * * * * * * * * * //


// points:

140
(
(12.9 1.565659 0.6537905)
(12.9 1.575 0.65421)
(12.73 1.575 0.65421)
(12.73 1.565659 0.6537905)
(12.9 1.556393 0.6525353)
(12.73 1.556393 0.6525353)
(12.9 1.547276 0.6504546)
(12.73 1.547276 0.6504546)
(12.9 1.538383 0.647565)
(12.73 1.538383 0.647565)
(12.9 1.529785 0.64389)
(12.73 1.529785 0.64389)
(12.9 1.521551 0.6394589)
(12.73 1.521551 0.6394589)
(12.9 1.513747 0.6343077)
(12.73 1.513747 0.6343077)
(12.9 1.506436 0.6284776)
(12.73 1.506436 0.6284776)
(12.73 1.499678 0.6220156)
(12.9 1.499678 0.6220156)
(12.73 1.493525 0.6149739)
(12.9 1.493525 0.6149739)
(12.73 1.488029 0.607409)
(12.9 1.488029 0.607409)
(12.73 1.483233 0.5993819)
(12.73 1.479176 0.5909571)
(12.9 1.483233 0.5993819)
(12.9 1.479176 0.5909571)
(12.9 1.47589 0.5822027)
(12.73 1.47589 0.5822027)
(12.9 1.473403 0.5731889)
(12.73 1.473403 0.5731889)
(12.9 1.471733 0.5639884)
(12.73 1.471733 0.5639884)
(12.9 1.470895 0.5546754)
(12.73 1.470895 0.5546754)
(12.9 1.470895 0.5453246)
(12.73 1.470895 0.5453246)
(12.9 1.471733 0.5360116)
(12.73 1.471733 0.5360116)
(12.9 1.473403 0.5268111)
(12.73 1.473403 0.5268111)
(12.9 1.47589 0.5177973)
(12.73 1.47589 0.5177973)
(12.9 1.479176 0.5090429)
(12.73 1.479176 0.5090429)
(12.9 1.483233 0.5006181)
(12.73 1.483233 0.5006181)
(12.9 1.488029 0.492591)
(12.73 1.488029 0.492591)
(12.73 1.493525 0.4850261)
(12.9 1.493525 0.4850261)
(12.73 1.499678 0.4779844)
(12.9 1.499678 0.4779844)
(12.9 1.506436 0.4715224)
(12.73 1.506436 0.4715224)
(12.9 1.513747 0.4656923)
(12.73 1.513747 0.4656923)
(12.73 1.521551 0.4605411)
(12.9 1.521551 0.4605411)
(12.73 1.529785 0.45611)
(12.73 1.538383 0.452435)
(12.9 1.529785 0.45611)
(12.9 1.538383 0.452435)
(12.73 1.547276 0.4495454)
(12.73 1.556393 0.4474647)
(12.9 1.547276 0.4495454)
(12.9 1.556393 0.4474647)
(12.73 1.565659 0.4462095)
(12.9 1.565659 0.4462095)
(12.73 1.575 0.44579)
(12.9 1.575 0.44579)
(12.73 1.584341 0.4462095)
(12.9 1.584341 0.4462095)
(12.73 1.593607 0.4474647)
(12.73 1.602724 0.4495454)
(12.9 1.593607 0.4474647)
(12.9 1.602724 0.4495454)
(12.73 1.611617 0.452435)
(12.9 1.611617 0.452435)
(12.9 1.620215 0.45611)
(12.73 1.620215 0.45611)
(12.9 1.628449 0.4605411)
(12.73 1.628449 0.4605411)
(12.73 1.636253 0.4656923)
(12.9 1.636253 0.4656923)
(12.9 1.643564 0.4715224)
(12.73 1.643564 0.4715224)
(12.73 1.650322 0.4779844)
(12.73 1.656475 0.4850261)
(12.9 1.650322 0.4779844)
(12.9 1.656475 0.4850261)
(12.73 1.661971 0.492591)
(12.73 1.666767 0.5006181)
(12.9 1.661971 0.492591)
(12.9 1.666767 0.5006181)
(12.73 1.670824 0.5090429)
(12.73 1.67411 0.5177973)
(12.9 1.670824 0.5090429)
(12.9 1.67411 0.5177973)
(12.73 1.676597 0.5268111)
(12.9 1.676597 0.5268111)
(12.73 1.678267 0.5360116)
(12.73 1.679105 0.5453246)
(12.9 1.678267 0.5360116)
(12.9 1.679105 0.5453246)
(12.73 1.679105 0.5546754)
(12.9 1.679105 0.5546754)
(12.73 1.678267 0.5639884)
(12.9 1.678267 0.5639884)
(12.73 1.676597 0.5731889)
(12.73 1.67411 0.5822027)
(12.9 1.676597 0.5731889)
(12.9 1.67411 0.5822027)
(12.73 1.670824 0.5909571)
(12.73 1.666767 0.5993819)
(12.9 1.670824 0.5909571)
(12.9 1.666767 0.5993819)
(12.73 1.661971 0.607409)
(12.9 1.661971 0.607409)
(12.73 1.656475 0.6149739)
(12.9 1.656475 0.6149739)
(12.73 1.650322 0.6220156)
(12.73 1.643564 0.6284776)
(12.9 1.650322 0.6220156)
(12.9 1.643564 0.6284776)
(12.73 1.636253 0.6343077)
(12.9 1.636253 0.6343077)
(12.73 1.628449 0.6394589)
(12.73 1.620215 0.64389)
(12.9 1.628449 0.6394589)
(12.9 1.620215 0.64389)
(12.73 1.611617 0.647565)
(12.9 1.611617 0.647565)
(12.9 1.602724 0.6504546)
(12.73 1.602724 0.6504546)
(12.9 1.593607 0.6525353)
(12.73 1.593607 0.6525353)
(12.9 1.584341 0.6537905)
(12.73 1.584341 0.6537905)
)


// edges:

140
(
(0 1)
(2 3)
(4 0)
(3 5)
(6 4)
(5 7)
(8 6)
(7 9)
(10 8)
(9 11)
(12 10)
(11 13)
(14 12)
(13 15)
(16 14)
(15 17)
(17 18)
(19 16)
(18 20)
(21 19)
(20 22)
(23 21)
(22 24)
(24 25)
(26 23)
(27 26)
(28 27)
(25 29)
(30 28)
(29 31)
(32 30)
(31 33)
(34 32)
(33 35)
(36 34)
(35 37)
(38 36)
(37 39)
(40 38)
(39 41)
(42 40)
(41 43)
(44 42)
(43 45)
(46 44)
(45 47)
(48 46)
(47 49)
(49 50)
(51 48)
(50 52)
(53 51)
(54 53)
(52 55)
(56 54)
(55 57)
(57 58)
(59 56)
(58 60)
(60 61)
(62 59)
(63 62)
(61 64)
(64 65)
(66 63)
(67 66)
(65 68)
(69 67)
(68 70)
(71 69)
(70 72)
(73 71)
(72 74)
(74 75)
(76 73)
(77 76)
(75 78)
(79 77)
(80 79)
(78 81)
(82 80)
(81 83)
(83 84)
(85 82)
(86 85)
(84 87)
(87 88)
(88 89)
(90 86)
(91 90)
(89 92)
(92 93)
(94 91)
(95 94)
(93 96)
(96 97)
(98 95)
(99 98)
(97 100)
(101 99)
(100 102)
(102 103)
(104 101)
(105 104)
(103 106)
(107 105)
(106 108)
(109 107)
(108 110)
(110 111)
(112 109)
(113 112)
(111 114)
(114 115)
(116 113)
(117 116)
(115 118)
(119 117)
(118 120)
(121 119)
(120 122)
(122 123)
(124 121)
(125 124)
(123 126)
(127 125)
(126 128)
(128 129)
(130 127)
(131 130)
(129 132)
(133 131)
(134 133)
(132 135)
(136 134)
(135 137)
(138 136)
(137 139)
(1 138)
(139 2)
)

// * * * * * * * * * * * * * * * * * * * * * * * * * * * * * * * * * * * * * //


// ************************************************************************* //
