/*--------------------------------*- C++ -*----------------------------------*\
  =========                 |
  \\      /  F ield         | OpenFOAM: The Open Source CFD Toolbox
   \\    /   O peration     | Website:  https://openfoam.org
    \\  /    A nd           | Version:  dev
     \\/     M anipulation  |
\*---------------------------------------------------------------------------*/
FoamFile
{
    format      ascii;
    class       featureEdgeMesh;
    location    "constant/triSurface";
    object      pipe2.eMesh;
}
// * * * * * * * * * * * * * * * * * * * * * * * * * * * * * * * * * * * * * //


// points:

140
(
(4.807178 -0.1 -2.7311959)
(4.8140001 -0.1 -2.73089)
(4.8140001 0 -2.73089)
(4.807178 -6.0595513e-17 -2.7311959)
(4.8004098 -0.1 -2.7321129)
(4.8004098 -1.2070309e-16 -2.7321129)
(4.7937522 -0.1 -2.733633)
(4.7937522 -1.798389e-16 -2.733633)
(4.7872572 -0.1 -2.735743)
(4.7872572 -2.3752681e-16 -2.735743)
(4.7809768 -0.1 -2.7384269)
(4.7809768 -2.933022e-16 -2.7384269)
(4.7749629 -0.1 -2.741663)
(4.7749629 -3.467161e-16 -2.741663)
(4.7692642 -0.1 -2.7454259)
(4.7692642 -3.973385e-16 -2.7454259)
(4.7639241 -0.1 -2.7496841)
(4.7639241 -4.447617e-16 -2.7496841)
(4.7589879 -4.8860402e-16 -2.7544031)
(4.7589879 -0.1 -2.7544031)
(4.7544951 -5.285123e-16 -2.759546)
(4.7544951 -0.1 -2.759546)
(4.7504811 -5.6416529e-16 -2.7650709)
(4.7504811 -0.1 -2.7650709)
(4.7469778 -5.9527612e-16 -2.7709341)
(4.7469778 -0.1 -2.7709341)
(4.7440152 -6.2159402e-16 -2.777087)
(4.7440152 -0.1 -2.777087)
(4.7416148 -6.4290722e-16 -2.7834809)
(4.7416148 -0.1 -2.7834809)
(4.7397981 -0.1 -2.7900641)
(4.7397981 -6.5904399e-16 -2.7900641)
(4.7385788 -0.1 -2.7967839)
(4.7385788 -6.6987468e-16 -2.7967839)
(4.737967 -0.1 -2.8035851)
(4.737967 -6.7531189e-16 -2.8035851)
(4.737967 -0.1 -2.810415)
(4.737967 -6.7531189e-16 -2.810415)
(4.7385788 -0.1 -2.8172159)
(4.7385788 -6.6987468e-16 -2.8172159)
(4.7397981 -0.1 -2.823936)
(4.7397981 -6.5904399e-16 -2.823936)
(4.7416148 -0.1 -2.830519)
(4.7416148 -6.4290722e-16 -2.830519)
(4.7440152 -6.2159402e-16 -2.8369131)
(4.7440152 -0.1 -2.8369131)
(4.7469778 -0.1 -2.843066)
(4.7469778 -5.9527612e-16 -2.843066)
(4.7504811 -5.6416529e-16 -2.8489289)
(4.7504811 -0.1 -2.8489289)
(4.7544951 -0.1 -2.854454)
(4.7544951 -5.285123e-16 -2.854454)
(4.7589879 -0.1 -2.859597)
(4.7589879 -4.8860402e-16 -2.859597)
(4.7639241 -4.447617e-16 -2.864316)
(4.7639241 -0.1 -2.864316)
(4.7692642 -0.1 -2.8685739)
(4.7692642 -3.973385e-16 -2.8685739)
(4.7749629 -3.467161e-16 -2.8723371)
(4.7809768 -2.933022e-16 -2.8755729)
(4.7749629 -0.1 -2.8723371)
(4.7809768 -0.1 -2.8755729)
(4.7872572 -2.3752681e-16 -2.878257)
(4.7937522 -1.798389e-16 -2.880367)
(4.7872572 -0.1 -2.878257)
(4.7937522 -0.1 -2.880367)
(4.8004098 -1.2070309e-16 -2.881887)
(4.8004098 -0.1 -2.881887)
(4.807178 -6.0595513e-17 -2.8828039)
(4.807178 -0.1 -2.8828039)
(4.8140001 -8.2785218e-32 -2.88311)
(4.8140001 -0.1 -2.88311)
(4.8208218 6.0595513e-17 -2.8828039)
(4.82759 1.2070309e-16 -2.881887)
(4.8208218 -0.1 -2.8828039)
(4.82759 -0.1 -2.881887)
(4.8342481 1.798389e-16 -2.880367)
(4.8342481 -0.1 -2.880367)
(4.8407431 2.3752681e-16 -2.878257)
(4.8407431 -0.1 -2.878257)
(4.847023 -0.1 -2.8755729)
(4.847023 2.933022e-16 -2.8755729)
(4.8530369 -0.1 -2.8723371)
(4.8530369 3.467161e-16 -2.8723371)
(4.858736 3.973385e-16 -2.8685739)
(4.858736 -0.1 -2.8685739)
(4.8640761 4.447617e-16 -2.864316)
(4.8640761 -0.1 -2.864316)
(4.8690119 4.8860402e-16 -2.859597)
(4.8690119 -0.1 -2.859597)
(4.8735051 5.285123e-16 -2.854454)
(4.8775191 5.6416529e-16 -2.8489289)
(4.8735051 -0.1 -2.854454)
(4.8775191 -0.1 -2.8489289)
(4.881022 5.9527612e-16 -2.843066)
(4.881022 -0.1 -2.843066)
(4.883985 6.2159402e-16 -2.8369131)
(4.883985 -0.1 -2.8369131)
(4.886385 6.4290722e-16 -2.830519)
(4.886385 -0.1 -2.830519)
(4.8882022 6.5904399e-16 -2.823936)
(4.8882022 -0.1 -2.823936)
(4.889421 6.6987468e-16 -2.8172159)
(4.889421 -0.1 -2.8172159)
(4.8900328 6.7531189e-16 -2.810415)
(4.8900328 6.7531189e-16 -2.8035851)
(4.8900328 -0.1 -2.810415)
(4.8900328 -0.1 -2.8035851)
(4.889421 6.6987468e-16 -2.7967839)
(4.889421 -0.1 -2.7967839)
(4.8882022 6.5904399e-16 -2.7900641)
(4.8882022 -0.1 -2.7900641)
(4.886385 6.4290722e-16 -2.7834809)
(4.886385 -0.1 -2.7834809)
(4.883985 6.2159402e-16 -2.777087)
(4.883985 -0.1 -2.777087)
(4.881022 5.9527612e-16 -2.7709341)
(4.881022 -0.1 -2.7709341)
(4.8775191 5.6416529e-16 -2.7650709)
(4.8775191 -0.1 -2.7650709)
(4.8735051 5.285123e-16 -2.759546)
(4.8735051 -0.1 -2.759546)
(4.8690119 4.8860402e-16 -2.7544031)
(4.8690119 -0.1 -2.7544031)
(4.8640761 4.447617e-16 -2.7496841)
(4.8640761 -0.1 -2.7496841)
(4.858736 3.973385e-16 -2.7454259)
(4.858736 -0.1 -2.7454259)
(4.8530369 3.467161e-16 -2.741663)
(4.8530369 -0.1 -2.741663)
(4.847023 -0.1 -2.7384269)
(4.847023 2.933022e-16 -2.7384269)
(4.8407431 -0.1 -2.735743)
(4.8407431 2.3752681e-16 -2.735743)
(4.8342481 -0.1 -2.733633)
(4.8342481 1.798389e-16 -2.733633)
(4.82759 -0.1 -2.7321129)
(4.82759 1.2070309e-16 -2.7321129)
(4.8208218 -0.1 -2.7311959)
(4.8208218 6.0595513e-17 -2.7311959)
)


// edges:

140
(
(0 1)
(2 3)
(4 0)
(3 5)
(6 4)
(5 7)
(8 6)
(7 9)
(10 8)
(9 11)
(12 10)
(11 13)
(14 12)
(13 15)
(16 14)
(15 17)
(17 18)
(19 16)
(18 20)
(21 19)
(20 22)
(23 21)
(22 24)
(25 23)
(24 26)
(27 25)
(26 28)
(29 27)
(30 29)
(28 31)
(32 30)
(31 33)
(34 32)
(33 35)
(36 34)
(35 37)
(38 36)
(37 39)
(40 38)
(39 41)
(42 40)
(41 43)
(43 44)
(45 42)
(46 45)
(44 47)
(47 48)
(49 46)
(50 49)
(48 51)
(52 50)
(51 53)
(53 54)
(55 52)
(56 55)
(54 57)
(57 58)
(58 59)
(60 56)
(61 60)
(59 62)
(62 63)
(64 61)
(65 64)
(63 66)
(67 65)
(66 68)
(69 67)
(68 70)
(71 69)
(70 72)
(72 73)
(74 71)
(75 74)
(73 76)
(77 75)
(76 78)
(79 77)
(80 79)
(78 81)
(82 80)
(81 83)
(83 84)
(85 82)
(84 86)
(87 85)
(86 88)
(89 87)
(88 90)
(90 91)
(92 89)
(93 92)
(91 94)
(95 93)
(94 96)
(97 95)
(96 98)
(99 97)
(98 100)
(101 99)
(100 102)
(103 101)
(102 104)
(104 105)
(106 103)
(107 106)
(105 108)
(109 107)
(108 110)
(111 109)
(110 112)
(113 111)
(112 114)
(115 113)
(114 116)
(117 115)
(116 118)
(119 117)
(118 120)
(121 119)
(120 122)
(123 121)
(122 124)
(125 123)
(124 126)
(127 125)
(126 128)
(129 127)
(130 129)
(128 131)
(132 130)
(131 133)
(134 132)
(133 135)
(136 134)
(135 137)
(138 136)
(137 139)
(139 2)
(1 138)
)

// * * * * * * * * * * * * * * * * * * * * * * * * * * * * * * * * * * * * * //


// ************************************************************************* //
