/*--------------------------------*- C++ -*----------------------------------*\
  =========                 |
  \\      /  F ield         | OpenFOAM: The Open Source CFD Toolbox
   \\    /   O peration     | Website:  https://openfoam.org
    \\  /    A nd           | Version:  7
     \\/     M anipulation  |
\*---------------------------------------------------------------------------*/
FoamFile
{
    version     2.0;
    format      ascii;
    class       featureEdgeMesh;
    location    "constant/triSurface";
    object      pipe1.eMesh;
}
// * * * * * * * * * * * * * * * * * * * * * * * * * * * * * * * * * * * * * //


// points:

92
(
(0.12389 1.575 0.67389)
(0.1251859 1.588985 0.67389)
(0.12389 1.588985 0.6751859)
(0.1240592 1.588985 0.6751748)
(0.1242254 1.588985 0.6751418)
(0.1240592 1.561015 0.6751748)
(0.1243859 1.588985 0.6750873)
(0.1242254 1.561015 0.6751418)
(0.124538 1.588985 0.6750123)
(0.1243859 1.561015 0.6750873)
(0.1246789 1.588985 0.6749181)
(0.124538 1.561015 0.6750123)
(0.1248064 1.588985 0.6748064)
(0.1246789 1.561015 0.6749181)
(0.1249181 1.588985 0.6746789)
(0.1248064 1.561015 0.6748064)
(0.1250123 1.588985 0.674538)
(0.1249181 1.561015 0.6746789)
(0.1250873 1.588985 0.6743859)
(0.1250123 1.561015 0.674538)
(0.1251418 1.588985 0.6742254)
(0.1250873 1.561015 0.6743859)
(0.1251418 1.561015 0.6742254)
(0.1251748 1.561015 0.6740592)
(0.2748141 1.561015 0.15)
(0.27611 1.575 0.15)
(0.2709705 1.547506 0.15)
(0.26471 1.534933 0.15)
(0.256246 1.523725 0.15)
(0.2458665 1.514263 0.15)
(0.2339251 1.506869 0.15)
(0.2208285 1.501795 0.15)
(0.2070225 1.499215 0.15)
(0.1929775 1.499215 0.15)
(0.1791715 1.501795 0.15)
(0.1660749 1.506869 0.15)
(0.1541335 1.514263 0.15)
(0.143754 1.523725 0.15)
(0.13529 1.534933 0.15)
(0.1290295 1.547506 0.15)
(0.1251859 1.561015 0.15)
(0.12389 1.575 0.15)
(0.1251859 1.588985 0.15)
(0.1290295 1.602494 0.15)
(0.13529 1.615067 0.15)
(0.143754 1.626275 0.15)
(0.1541335 1.635737 0.15)
(0.1660749 1.643131 0.15)
(0.1791715 1.648205 0.15)
(0.1929775 1.650785 0.15)
(0.2070225 1.650785 0.15)
(0.2208285 1.648205 0.15)
(0.2339251 1.643131 0.15)
(0.2458665 1.635737 0.15)
(0.256246 1.626275 0.15)
(0.26471 1.615067 0.15)
(0.2709705 1.602494 0.15)
(0.2748141 1.588985 0.15)
(-0.4 1.575 0.82611)
(-0.4 1.561015 0.8248141)
(-0.4 1.547506 0.8209705)
(-0.4 1.534933 0.81471)
(-0.4 1.523725 0.806246)
(-0.4 1.514263 0.7958665)
(-0.4 1.506869 0.7839251)
(-0.4 1.501795 0.7708285)
(-0.4 1.499215 0.7570225)
(-0.4 1.499215 0.7429775)
(-0.4 1.501795 0.7291715)
(-0.4 1.506869 0.7160749)
(-0.4 1.514263 0.7041335)
(-0.4 1.523725 0.693754)
(-0.4 1.534933 0.68529)
(-0.4 1.547506 0.6790295)
(-0.4 1.561015 0.6751859)
(-0.4 1.575 0.67389)
(-0.4 1.588985 0.6751859)
(-0.4 1.602494 0.6790295)
(-0.4 1.615067 0.68529)
(-0.4 1.626275 0.693754)
(-0.4 1.635737 0.7041335)
(-0.4 1.643131 0.7160749)
(-0.4 1.648205 0.7291715)
(-0.4 1.650785 0.7429775)
(-0.4 1.650785 0.7570225)
(-0.4 1.648205 0.7708285)
(-0.4 1.643131 0.7839251)
(-0.4 1.635737 0.7958665)
(-0.4 1.626275 0.806246)
(-0.4 1.615067 0.81471)
(-0.4 1.602494 0.8209705)
(-0.4 1.588985 0.8248141)
)


// edges:

98
(
(24 25)
(26 24)
(27 26)
(28 27)
(29 28)
(30 29)
(31 30)
(32 31)
(33 32)
(34 33)
(35 34)
(36 35)
(37 36)
(38 37)
(39 38)
(40 39)
(41 40)
(42 41)
(43 42)
(44 43)
(45 44)
(46 45)
(47 46)
(48 47)
(49 48)
(50 49)
(51 50)
(52 51)
(53 52)
(54 53)
(55 54)
(56 55)
(57 56)
(25 57)
(58 59)
(59 60)
(60 61)
(61 62)
(62 63)
(63 64)
(64 65)
(65 66)
(66 67)
(67 68)
(68 69)
(69 70)
(70 71)
(71 72)
(72 73)
(73 74)
(74 75)
(75 76)
(76 77)
(77 78)
(78 79)
(79 80)
(80 81)
(81 82)
(82 83)
(83 84)
(84 85)
(85 86)
(86 87)
(87 88)
(88 89)
(89 90)
(90 91)
(91 58)
(0 1)
(0 2)
(3 0)
2{0}
(4 0)
(5 0)
(0 5)
(6 0)
(0 7)
(8 0)
(0 9)
(10 0)
(11 0)
(0 11)
(12 0)
(0 13)
(14 0)
(15 0)
(0 15)
(16 0)
(0 17)
(18 0)
(19 0)
(0 19)
(20 0)
(21 0)
(0 21)
(22 0)
(0 22)
(23 0)
)

// * * * * * * * * * * * * * * * * * * * * * * * * * * * * * * * * * * * * * //


// ************************************************************************* //
