/*--------------------------------*- C++ -*----------------------------------*\
  =========                 |
  \\      /  F ield         | OpenFOAM: The Open Source CFD Toolbox
   \\    /   O peration     | Website:  https://openfoam.org
    \\  /    A nd           | Version:  dev
     \\/     M anipulation  |
\*---------------------------------------------------------------------------*/
FoamFile
{
    format      ascii;
    class       featureEdgeMesh;
    location    "constant/triSurface";
    object      pipe1.eMesh;
}
// * * * * * * * * * * * * * * * * * * * * * * * * * * * * * * * * * * * * * //


// points:

92
(
(0.12389 1.575 0.67388999)
(0.12518591 1.588985 0.67388999)
(0.12389 1.588985 0.67518592)
(0.1240592 1.588985 0.67517477)
(0.1242254 1.588985 0.67514181)
(0.1240592 1.561015 0.67517477)
(0.1243859 1.588985 0.67508727)
(0.1242254 1.561015 0.67514181)
(0.124538 1.588985 0.67501229)
(0.1243859 1.561015 0.67508727)
(0.1246789 1.588985 0.67491812)
(0.124538 1.561015 0.67501229)
(0.1248064 1.588985 0.67480642)
(0.1246789 1.561015 0.67491812)
(0.1249181 1.588985 0.67467892)
(0.1248064 1.561015 0.67480642)
(0.12501229 1.588985 0.67453802)
(0.1249181 1.561015 0.67467892)
(0.12508731 1.588985 0.67438591)
(0.12501229 1.561015 0.67453802)
(0.1251418 1.588985 0.67422539)
(0.12508731 1.561015 0.67438591)
(0.1251418 1.561015 0.67422539)
(0.12517481 1.561015 0.67405921)
(0.2748141 1.561015 0.15000001)
(0.27610999 1.575 0.15000001)
(0.27097049 1.547506 0.15000001)
(0.26471001 1.534933 0.15000001)
(0.256246 1.523725 0.15000001)
(0.24586651 1.514263 0.15000001)
(0.2339251 1.506869 0.15000001)
(0.2208285 1.5017951 0.15000001)
(0.2070225 1.499215 0.15000001)
(0.1929775 1.499215 0.15000001)
(0.1791715 1.5017951 0.15000001)
(0.1660749 1.506869 0.15000001)
(0.1541335 1.514263 0.15000001)
(0.14375401 1.523725 0.15000001)
(0.13529 1.534933 0.15000001)
(0.1290295 1.547506 0.15000001)
(0.12518591 1.561015 0.15000001)
(0.12389 1.575 0.15000001)
(0.12518591 1.588985 0.15000001)
(0.1290295 1.602494 0.15000001)
(0.13529 1.615067 0.15000001)
(0.14375401 1.6262749 0.15000001)
(0.1541335 1.6357369 0.15000001)
(0.1660749 1.643131 0.15000001)
(0.1791715 1.648205 0.15000001)
(0.1929775 1.650785 0.15000001)
(0.2070225 1.650785 0.15000001)
(0.2208285 1.648205 0.15000001)
(0.2339251 1.643131 0.15000001)
(0.24586651 1.6357369 0.15000001)
(0.256246 1.6262749 0.15000001)
(0.26471001 1.615067 0.15000001)
(0.27097049 1.602494 0.15000001)
(0.2748141 1.588985 0.15000001)
(-0.40000001 1.575 0.82611001)
(-0.40000001 1.561015 0.82481408)
(-0.40000001 1.547506 0.82097048)
(-0.40000001 1.534933 0.81471002)
(-0.40000001 1.523725 0.80624598)
(-0.40000001 1.514263 0.79586649)
(-0.40000001 1.506869 0.78392512)
(-0.40000001 1.5017951 0.77082849)
(-0.40000001 1.499215 0.7570225)
(-0.40000001 1.499215 0.7429775)
(-0.40000001 1.5017951 0.72917151)
(-0.40000001 1.506869 0.71607488)
(-0.40000001 1.514263 0.70413351)
(-0.40000001 1.523725 0.69375402)
(-0.40000001 1.534933 0.68528998)
(-0.40000001 1.547506 0.67902952)
(-0.40000001 1.561015 0.67518592)
(-0.40000001 1.575 0.67388999)
(-0.40000001 1.588985 0.67518592)
(-0.40000001 1.602494 0.67902952)
(-0.40000001 1.615067 0.68528998)
(-0.40000001 1.6262749 0.69375402)
(-0.40000001 1.6357369 0.70413351)
(-0.40000001 1.643131 0.71607488)
(-0.40000001 1.648205 0.72917151)
(-0.40000001 1.650785 0.7429775)
(-0.40000001 1.650785 0.7570225)
(-0.40000001 1.648205 0.77082849)
(-0.40000001 1.643131 0.78392512)
(-0.40000001 1.6357369 0.79586649)
(-0.40000001 1.6262749 0.80624598)
(-0.40000001 1.615067 0.81471002)
(-0.40000001 1.602494 0.82097048)
(-0.40000001 1.588985 0.82481408)
)


// edges:

98
(
(24 25)
(26 24)
(27 26)
(28 27)
(29 28)
(30 29)
(31 30)
(32 31)
(33 32)
(34 33)
(35 34)
(36 35)
(37 36)
(38 37)
(39 38)
(40 39)
(41 40)
(42 41)
(43 42)
(44 43)
(45 44)
(46 45)
(47 46)
(48 47)
(49 48)
(50 49)
(51 50)
(52 51)
(53 52)
(54 53)
(55 54)
(56 55)
(57 56)
(25 57)
(58 59)
(59 60)
(60 61)
(61 62)
(62 63)
(63 64)
(64 65)
(65 66)
(66 67)
(67 68)
(68 69)
(69 70)
(70 71)
(71 72)
(72 73)
(73 74)
(74 75)
(75 76)
(76 77)
(77 78)
(78 79)
(79 80)
(80 81)
(81 82)
(82 83)
(83 84)
(84 85)
(85 86)
(86 87)
(87 88)
(88 89)
(89 90)
(90 91)
(91 58)
(0 1)
(0 2)
(3 0)
2{0}
(4 0)
(5 0)
(0 5)
(6 0)
(0 7)
(8 0)
(0 9)
(10 0)
(11 0)
(0 11)
(12 0)
(0 13)
(14 0)
(15 0)
(0 15)
(16 0)
(0 17)
(18 0)
(19 0)
(0 19)
(20 0)
(21 0)
(0 21)
(22 0)
(0 22)
(23 0)
)

// * * * * * * * * * * * * * * * * * * * * * * * * * * * * * * * * * * * * * //


// ************************************************************************* //
