/*--------------------------------*- C++ -*----------------------------------*\
  =========                 |
  \\      /  F ield         | OpenFOAM: The Open Source CFD Toolbox
   \\    /   O peration     | Website:  https://openfoam.org
    \\  /    A nd           | Version:  dev
     \\/     M anipulation  |
\*---------------------------------------------------------------------------*/
FoamFile
{
    format      ascii;
    class       extendedFeatureEdgeMesh;
    location    "constant/extendedFeatureEdgeMesh";
    object      atmosphere.extendedFeatureEdgeMesh;
}
// * * * * * * * * * * * * * * * * * * * * * * * * * * * * * * * * * * * * * //

// points
6((1.7 3.1500001 1.5) (12.73 0 1.5) (12.73 3.1500001 1.5) (0 0 1.5) (0 4.1500001 1.5) (1.7 4.1500001 1.5))
// edges
6((1 2) (2 0) (3 1) (0 5) (5 4) (4 3))
// concaveStart mixedStart nonFeatureStart
0 0 6
// internalStart flatStart openStart multipleStart
0 0 0 6
// normals
4{(-0 0 1)}
// normal volume types

4
(
0
0
0
0
)

// normalDirections

6
(
1(1)
1(1)
1(1)
1(1)
1(1)
1(1)
)

// edgeNormals

6
(
1(0)
1(0)
1(1)
1(2)
1(2)
1(3)
)

// featurePointNormals

6
(
1(0)
1(0)
1(0)
1(1)
1(2)
1(2)
)

// featurePointEdges

6
(
2(1 3)
2(0 2)
2(0 1)
2(2 5)
2(4 5)
2(3 4)
)

// regionEdges
6(0 1 2 3 4 5)


// ************************************************************************* //
