/*--------------------------------*- C++ -*----------------------------------*\
  =========                 |
  \\      /  F ield         | OpenFOAM: The Open Source CFD Toolbox
   \\    /   O peration     | Website:  https://openfoam.org
    \\  /    A nd           | Version:  dev
     \\/     M anipulation  |
\*---------------------------------------------------------------------------*/
FoamFile
{
    format      ascii;
    class       extendedFeatureEdgeMesh;
    location    "constant/extendedFeatureEdgeMesh";
    object      concreteWall.extendedFeatureEdgeMesh;
}
// * * * * * * * * * * * * * * * * * * * * * * * * * * * * * * * * * * * * * //

// points

99
(
(1.7 3.1500001 -2.2)
(11.03 3.1500001 -2.2)
(0 0 0)
(1.7 0 -2.2)
(11.03 0 -2.2)
(1.7 3.1500001 0)
(1.7 3.1500001 1.5)
(11.03 3.1500001 0.30000001)
(12.73 3.1500001 1.5)
(12.73 3.1500001 0.30000001)
(1.7 0 0)
(0 4.1500001 0)
(1.7 4.1500001 0)
(11.03 0 0.30000001)
(12.73 0 1.5)
(12.73 0 0.30000001)
(0 0 1.5)
(1.7 4.1500001 1.5)
(0 4.1500001 1.5)
(12.73 1.644104 0.62800229)
(12.73 1.660763 0.60919797)
(12.73 1.6234289 0.64227343)
(12.73 1.672438 0.5869534)
(12.73 1.599939 0.65118182)
(12.73 1.67845 0.56256109)
(12.73 1.575 0.65420997)
(12.73 1.67845 0.53743893)
(12.73 1.672438 0.51304662)
(12.73 1.660763 0.49080199)
(12.73 1.644104 0.47199771)
(12.73 1.6234289 0.4577266)
(12.73 1.599939 0.44881821)
(12.73 1.550061 0.65118182)
(12.73 1.526571 0.64227343)
(12.73 1.505896 0.62800229)
(12.73 1.489237 0.60919797)
(12.73 1.477562 0.5869534)
(12.73 1.47155 0.56256109)
(12.73 1.47155 0.53743893)
(12.73 1.477562 0.51304662)
(12.73 1.489237 0.49080199)
(12.73 1.505896 0.47199771)
(12.73 1.526571 0.4577266)
(12.73 1.550061 0.44881821)
(12.73 1.575 0.44578999)
(4.7635298 -4.4826598e-16 -2.8639691)
(4.7513628 -5.5633098e-16 -2.850235)
(4.7786298 -3.1414941e-16 -2.874392)
(4.742836 -6.3206408e-16 -2.8339889)
(4.7384448 -6.7106381e-16 -2.816174)
(4.8140001 -6.831873e-31 -2.88311)
(4.7957859 -1.617756e-16 -2.880898)
(4.7384448 -6.7106381e-16 -2.7978261)
(4.8322139 1.617756e-16 -2.880898)
(4.742836 -6.3206408e-16 -2.7800109)
(4.7513628 -5.5633098e-16 -2.7637651)
(4.7635298 -4.4826598e-16 -2.750031)
(4.7786298 -3.1414941e-16 -2.739608)
(4.7957859 -1.617756e-16 -2.7331021)
(4.8140001 0 -2.73089)
(4.8322139 1.617756e-16 -2.7331021)
(4.84937 3.1414941e-16 -2.874392)
(4.86447 4.4826598e-16 -2.8639691)
(4.876637 5.5633098e-16 -2.850235)
(4.8851638 6.3206408e-16 -2.8339889)
(4.889555 6.7106381e-16 -2.816174)
(4.889555 6.7106381e-16 -2.7978261)
(4.8851638 6.3206408e-16 -2.7800109)
(4.876637 5.5633098e-16 -2.7637651)
(4.86447 4.4826598e-16 -2.750031)
(4.84937 3.1414941e-16 -2.739608)
(0 1.62547 0.69303077)
(0 1.637637 0.70676458)
(0 1.61037 0.68260789)
(0 1.6461639 0.72301102)
(0 1.593214 0.67610162)
(0 1.650555 0.74082601)
(0 1.650555 0.75917399)
(0 1.6461639 0.77698898)
(0 1.637637 0.79323542)
(0 1.62547 0.80696923)
(0 1.61037 0.81739211)
(0 1.593214 0.82389838)
(0 1.499445 0.75917399)
(0 1.499445 0.74082601)
(0 1.503836 0.72301102)
(0 1.512363 0.70676458)
(0 1.5245301 0.69303077)
(0 1.5396301 0.68260789)
(0 1.5567859 0.67610162)
(0 1.575 0.67388999)
(0 1.575 0.82611001)
(0 1.5567859 0.82389838)
(0 1.5396301 0.81739211)
(0 1.5245301 0.80696923)
(0 1.512363 0.79323542)
(0 1.503836 0.77698898)
(4.8099999 3.1500001 -2.822)
(4.8099999 0 -2.885)
)

// edges

108
(
(97 0)
(0 5)
(8 9)
(1 97)
(7 1)
(10 2)
(12 5)
(2 11)
(98 3)
(3 0)
(4 98)
(1 4)
(13 4)
(14 15)
(16 2)
(10 3)
(5 6)
(5 10)
(6 8)
(9 7)
(11 12)
(7 13)
(19 20)
(21 19)
(20 22)
(23 21)
(22 24)
(25 23)
(24 26)
(26 27)
(27 28)
(28 29)
(29 30)
(30 31)
(32 25)
(33 32)
(34 33)
(35 34)
(36 35)
(8 14)
(37 36)
(38 37)
(39 38)
(40 39)
(41 40)
(42 41)
(43 42)
(15 9)
(44 43)
(31 44)
(45 46)
(47 45)
(46 48)
(48 49)
(50 51)
(49 52)
(53 50)
(52 54)
(54 55)
(55 56)
(56 57)
(57 58)
(58 59)
(59 60)
(61 53)
(62 61)
(63 62)
(64 63)
(65 64)
(66 65)
(67 66)
(68 67)
(69 68)
(70 69)
(60 70)
(14 16)
(13 15)
(51 47)
(17 6)
(12 17)
(71 72)
(73 71)
(72 74)
(75 73)
(74 76)
(18 11)
(76 77)
(77 78)
(78 79)
(79 80)
(80 81)
(81 82)
(83 84)
(84 85)
(85 86)
(86 87)
(87 88)
(88 89)
(89 90)
(90 75)
(91 92)
(92 93)
(93 94)
(94 95)
(95 96)
(96 83)
(82 91)
(16 18)
)

// concaveStart mixedStart nonFeatureStart
5 5 19
// internalStart flatStart openStart multipleStart
16 18 18 108
// normals

113
(
(0 1 0)
(0 1 -0)
(0 0 -1)
(1 0 0)
(1 0 -0)
(1 -0 0)
(1 0 -0)
(1 -0 0)
(1 -0 -0)
(1 -0 0)
(1 -0 0)
(1 -0 0)
(1 -0 0)
(1 -0 0)
(1 -0 0)
(1 -0 0)
(1 0 0)
(1 0 0)
(1 0 0)
(1 0 0)
(1 0 0)
(1 -0 0)
(1 0 0)
(1 0 0)
(1 0 0)
(1 0 0)
(1 0 0)
(1 0 0)
(1 0 0)
(1 0 0)
(1 0 0)
(1 0 0)
(-2.2916688e-15 -1 -9.8985483e-15)
(-4.2785307e-15 -1 -1.9065859e-14)
(-1.3237523e-15 -1 -5.3563987e-15)
(-6.9978401e-16 -1 -2.3616564e-15)
(7.06562e-15 -1 -1.4954834e-14)
(-2.2085766e-16 -1 -0)
(1.1955209e-14 -1 -2.530396e-14)
(2.0015666e-16 -1 2.1398012e-15)
(6.189443e-16 -1 4.3368324e-15)
(1.0925936e-15 -1 6.9004461e-15)
(4.9573912e-15 -1 5.6855291e-15)
(6.1971871e-15 -1 7.0787475e-15)
(7.8014541e-15 -1 8.8959015e-15)
(1.030984e-14 -1 1.1756183e-14)
(-3.6592109e-15 -1 3.3069904e-14)
(-1.7279981e-15 -1 1.5370833e-14)
(-1.0170865e-15 -1 8.7694018e-15)
(-6.1724517e-16 -1 4.9855864e-15)
(-3.3730478e-16 -1 2.2723088e-15)
(-1.0928586e-16 -1 0)
(1.0141213e-16 -1 -2.1641404e-15)
(3.2124115e-16 -1 -4.4930851e-15)
(2.6558111e-15 -1 -5.515599e-15)
(3.6656376e-15 -1 -7.5569276e-15)
(4.992621e-15 -1 -1.0255168e-14)
(-0 -1 0)
(0 -1 -0)
(-1.2388843e-14 -1 -5.6089797e-14)
(1 0 0)
(1 0 0)
(-1 0 -0)
(-1 0 0)
(-1 0 -0)
(-1 0 0)
(-1 0 -0)
(-1 0 0)
(-1 0 0)
(-1 0 0)
(-1 0 0)
(-1 0 0)
(-1 0 0)
(-1 0 0)
(-1 0 0)
(-1 0 0)
(-1 0 0)
(-1 0 0)
(-1 0 0)
(-1 0 0)
(-1 0 0)
(-1 0 0)
(-1 0 0)
(-1 0 0)
(-1 0 0)
(-1 0 0)
(-1 0 0)
(-1 0 0)
(-1 0 0)
(-1 0 0)
(0 1 0)
(-0.19610675 0.0097855704 -0.98053373)
(-1 0 0)
(1 -0 0)
(0 1 -0)
(0.099498798 0.0099449767 -0.99498798)
(1 0 0)
(0 -0 -1)
(0 -1 0)
(0 0 -1)
(-1 0 0)
(-0.21509117 0.0097453261 -0.97654535)
(-3.6687113e-14 -1 -1.6656486e-13)
(-0.20563708 0 -0.97862832)
(-1 0 0)
(0.10946139 0.0099338351 -0.99394141)
(-1.0761116e-14 -1 9.7714082e-14)
(0.10448886 0 -0.99452606)
(-9.0410885e-17 -1 -0)
(1 0 0)
(-1 0 0)
(-1.4632337e-16 -1 0)
(0 1 0)
)

// normal volume types

113
(
0
0
0
0
0
0
0
0
0
0
0
0
0
0
0
0
0
0
0
0
0
0
0
0
0
0
0
0
0
0
0
0
0
0
0
0
0
0
0
0
0
0
0
0
0
0
0
0
0
0
0
0
0
0
0
0
0
0
0
0
0
0
0
0
0
0
0
0
0
0
0
0
0
0
0
0
0
0
0
0
0
0
0
0
0
0
0
0
0
0
0
0
0
0
0
0
0
0
0
0
0
0
0
0
0
0
0
0
0
0
0
0
0
)

// normalDirections

108
(
2(1 -1)
2(1 -1)
2(1 -1)
2(1 -1)
2(1 -1)
2(1 -1)
2(1 -1)
2(1 -1)
2(1 -1)
2(1 -1)
2(1 -1)
2(1 -1)
2(1 -1)
2(1 -1)
2(1 -1)
2(1 -1)
2(1 -1)
2(1 -1)
1(1)
1(1)
1(1)
1(1)
1(1)
1(1)
1(1)
1(1)
1(1)
1(1)
1(1)
1(1)
1(1)
1(1)
1(1)
1(1)
1(1)
1(1)
1(1)
1(1)
1(1)
1(1)
1(1)
1(1)
1(1)
1(1)
1(1)
1(1)
1(1)
1(1)
1(1)
1(1)
1(1)
1(1)
1(1)
1(1)
1(1)
1(1)
1(1)
1(1)
1(1)
1(1)
1(1)
1(1)
1(1)
1(1)
1(1)
1(1)
1(1)
1(1)
1(1)
1(1)
1(1)
1(1)
1(1)
1(1)
1(1)
1(1)
1(1)
1(1)
1(1)
1(1)
1(1)
1(1)
1(1)
1(1)
1(1)
1(1)
1(1)
1(1)
1(1)
1(1)
1(1)
1(1)
1(1)
1(1)
1(1)
1(1)
1(1)
1(1)
1(1)
1(1)
1(1)
1(1)
1(1)
1(1)
1(1)
1(1)
1(1)
1(1)
)

// edgeNormals

108
(
2(90 91)
2(90 92)
2(1 93)
2(94 95)
2(94 96)
2(97 98)
2(2 61)
2(99 100)
2(101 102)
2(103 104)
2(105 106)
2(107 96)
2(3 108)
2(109 58)
2(98 110)
2(111 104)
2(112 60)
2(97 92)
1(0)
1(1)
1(2)
1(3)
1(4)
1(5)
1(6)
1(7)
1(8)
1(9)
1(10)
1(11)
1(12)
1(13)
1(14)
1(15)
1(16)
1(17)
1(18)
1(19)
1(20)
1(21)
1(22)
1(23)
1(24)
1(25)
1(26)
1(27)
1(28)
1(29)
1(30)
1(31)
1(32)
1(33)
1(34)
1(35)
1(36)
1(37)
1(38)
1(39)
1(40)
1(41)
1(42)
1(43)
1(44)
1(45)
1(46)
1(47)
1(48)
1(49)
1(50)
1(51)
1(52)
1(53)
1(54)
1(55)
1(56)
1(57)
1(58)
1(59)
1(60)
1(61)
1(62)
1(63)
1(64)
1(65)
1(66)
1(67)
1(68)
1(69)
1(70)
1(71)
1(72)
1(73)
1(74)
1(75)
1(76)
1(77)
1(78)
1(79)
1(80)
1(81)
1(82)
1(83)
1(84)
1(85)
1(86)
1(87)
1(88)
1(89)
)

// featurePointNormals

19
(
4(90 91 92 103)
4(94 95 96 107)
3(97 98 100)
4(101 102 103 104)
4(105 106 107 96)
4(90 92 2 61)
2(112 60)
2(94 96)
2(1 93)
2(1 93)
3(97 98 104)
2(99 100)
2(2 61)
2(3 108)
2(109 58)
2(109 58)
2(98 110)
1(60)
1(67)
)

// featurePointEdges

19
(
3(0 9 1)
3(3 11 4)
3(7 14 5)
3(9 15 8)
3(11 12 10)
4(1 17 6 16)
3(16 18 78)
3(4 19 21)
3(2 18 39)
3(2 19 47)
3(5 15 17)
3(7 20 85)
3(6 20 79)
3(12 21 76)
3(13 39 75)
3(13 47 76)
3(14 75 107)
2(78 79)
2(85 107)
)

// regionEdges

90
(
18
19
20
21
22
23
24
25
26
27
28
29
30
31
32
33
34
35
36
37
38
39
40
41
42
43
44
45
46
47
48
49
50
51
52
53
54
55
56
57
58
59
60
61
62
63
64
65
66
67
68
69
70
71
72
73
74
75
76
77
78
79
80
81
82
83
84
85
86
87
88
89
90
91
92
93
94
95
96
97
98
99
100
101
102
103
104
105
106
107
)



// ************************************************************************* //
