/*--------------------------------*- C++ -*----------------------------------*\
  =========                 |
  \\      /  F ield         | OpenFOAM: The Open Source CFD Toolbox
   \\    /   O peration     | Website:  https://openfoam.org
    \\  /    A nd           | Version:  dev
     \\/     M anipulation  |
\*---------------------------------------------------------------------------*/
FoamFile
{
    format      ascii;
    class       extendedFeatureEdgeMesh;
    location    "constant/extendedFeatureEdgeMesh";
    object      desarenador.extendedFeatureEdgeMesh;
}
// * * * * * * * * * * * * * * * * * * * * * * * * * * * * * * * * * * * * * //

// points

177
(
(0 4.1500001 0)
(0 4.1500001 1.5)
(0 0 0)
(0 0 1.5)
(12.73 0 1.5)
(12.73 3.1500001 1.5)
(1.7 4.1500001 1.5)
(1.7 0 -2.2)
(11.03 0 -2.2)
(12.73 0 0.30000001)
(1.7 4.1500001 0)
(1.7 3.1500001 -2.2)
(12.73 3.1500001 0.30000001)
(11.03 3.1500001 -2.2)
(1.7 3.1500001 1.5)
(1.7 0 0)
(11.03 0 0.30000001)
(1.7 3.1500001 0)
(11.03 3.1500001 0.30000001)
(-0.40000001 1.5567859 0.82389838)
(-0.40000001 1.575 0.82611001)
(-0.40000001 1.5396301 0.81739211)
(-0.40000001 1.5245301 0.80696923)
(-0.40000001 1.512363 0.79323542)
(-0.40000001 1.503836 0.77698898)
(-0.40000001 1.499445 0.75917399)
(-0.40000001 1.499445 0.74082601)
(-0.40000001 1.503836 0.72301102)
(-0.40000001 1.512363 0.70676458)
(-0.40000001 1.5245301 0.69303077)
(-0.40000001 1.5396301 0.68260789)
(-0.40000001 1.5567859 0.67610162)
(-0.40000001 1.575 0.67388999)
(-0.40000001 1.593214 0.67610162)
(-0.40000001 1.61037 0.68260789)
(-0.40000001 1.62547 0.69303077)
(-0.40000001 1.637637 0.70676458)
(-0.40000001 1.6461639 0.72301102)
(-0.40000001 1.650555 0.74082601)
(-0.40000001 1.650555 0.75917399)
(-0.40000001 1.6461639 0.77698898)
(-0.40000001 1.637637 0.79323542)
(-0.40000001 1.62547 0.80696923)
(-0.40000001 1.61037 0.81739211)
(-0.40000001 1.593214 0.82389838)
(4.8099999 0 -2.885)
(4.8099999 3.1500001 -2.822)
(4.7957859 -0.1 -2.7331021)
(4.8140001 -0.1 -2.73089)
(4.7786298 -0.1 -2.739608)
(4.7635298 -0.1 -2.750031)
(4.7513628 -0.1 -2.7637651)
(4.742836 -0.1 -2.7800109)
(4.7384448 -0.1 -2.7978261)
(4.7384448 -0.1 -2.816174)
(4.742836 -0.1 -2.8339889)
(4.7513628 -0.1 -2.850235)
(4.7635298 -0.1 -2.8639691)
(4.7786298 -0.1 -2.874392)
(4.7957859 -0.1 -2.880898)
(4.8140001 -0.1 -2.88311)
(4.8322139 -0.1 -2.880898)
(4.84937 -0.1 -2.874392)
(4.86447 -0.1 -2.8639691)
(4.876637 -0.1 -2.850235)
(4.8851638 -0.1 -2.8339889)
(4.889555 -0.1 -2.816174)
(4.889555 -0.1 -2.7978261)
(4.8851638 -0.1 -2.7800109)
(4.876637 -0.1 -2.7637651)
(4.86447 -0.1 -2.750031)
(4.84937 -0.1 -2.739608)
(4.8322139 -0.1 -2.7331021)
(12.9 1.550061 0.65118182)
(12.9 1.575 0.65420997)
(12.9 1.526571 0.64227343)
(12.9 1.505896 0.62800229)
(12.9 1.489237 0.60919797)
(12.9 1.477562 0.5869534)
(12.9 1.47155 0.56256109)
(12.9 1.47155 0.53743893)
(12.9 1.477562 0.51304662)
(12.9 1.489237 0.49080199)
(12.9 1.505896 0.47199771)
(12.9 1.526571 0.4577266)
(12.9 1.550061 0.44881821)
(12.9 1.575 0.44578999)
(12.9 1.599939 0.44881821)
(12.9 1.6234289 0.4577266)
(12.9 1.644104 0.47199771)
(12.9 1.660763 0.49080199)
(12.9 1.672438 0.51304662)
(12.9 1.67845 0.53743893)
(12.9 1.67845 0.56256109)
(12.9 1.672438 0.5869534)
(12.9 1.660763 0.60919797)
(12.9 1.644104 0.62800229)
(12.9 1.6234289 0.64227343)
(12.9 1.599939 0.65118182)
(0 1.5567859 0.82389838)
(0 1.575 0.82611001)
(0 1.5396301 0.81739211)
(0 1.5245301 0.80696923)
(0 1.512363 0.79323542)
(0 1.503836 0.77698898)
(0 1.499445 0.75917399)
(0 1.499445 0.74082601)
(0 1.503836 0.72301102)
(0 1.512363 0.70676458)
(0 1.5245301 0.69303077)
(0 1.5396301 0.68260789)
(0 1.5567859 0.67610162)
(0 1.575 0.67388999)
(0 1.593214 0.67610162)
(0 1.61037 0.68260789)
(0 1.62547 0.69303077)
(0 1.637637 0.70676458)
(0 1.6461639 0.72301102)
(0 1.650555 0.74082601)
(0 1.650555 0.75917399)
(0 1.6461639 0.77698898)
(0 1.637637 0.79323542)
(0 1.62547 0.80696923)
(0 1.61037 0.81739211)
(0 1.593214 0.82389838)
(4.7635298 -4.4826598e-16 -2.8639691)
(4.7513628 -5.5633098e-16 -2.850235)
(4.7786298 -3.1414941e-16 -2.874392)
(4.742836 -6.3206408e-16 -2.8339889)
(4.7384448 -6.7106381e-16 -2.816174)
(4.8140001 -6.831873e-31 -2.88311)
(4.7957859 -1.617756e-16 -2.880898)
(4.7384448 -6.7106381e-16 -2.7978261)
(4.8322139 1.617756e-16 -2.880898)
(4.742836 -6.3206408e-16 -2.7800109)
(4.7513628 -5.5633098e-16 -2.7637651)
(4.7635298 -4.4826598e-16 -2.750031)
(4.7786298 -3.1414941e-16 -2.739608)
(4.7957859 -1.617756e-16 -2.7331021)
(4.8140001 0 -2.73089)
(4.8322139 1.617756e-16 -2.7331021)
(4.84937 3.1414941e-16 -2.874392)
(4.86447 4.4826598e-16 -2.8639691)
(4.876637 5.5633098e-16 -2.850235)
(4.8851638 6.3206408e-16 -2.8339889)
(4.889555 6.7106381e-16 -2.816174)
(4.889555 6.7106381e-16 -2.7978261)
(4.8851638 6.3206408e-16 -2.7800109)
(4.876637 5.5633098e-16 -2.7637651)
(4.86447 4.4826598e-16 -2.750031)
(4.84937 3.1414941e-16 -2.739608)
(12.73 1.644104 0.62800229)
(12.73 1.660763 0.60919797)
(12.73 1.6234289 0.64227343)
(12.73 1.672438 0.5869534)
(12.73 1.599939 0.65118182)
(12.73 1.67845 0.56256109)
(12.73 1.575 0.65420997)
(12.73 1.67845 0.53743893)
(12.73 1.672438 0.51304662)
(12.73 1.660763 0.49080199)
(12.73 1.644104 0.47199771)
(12.73 1.6234289 0.4577266)
(12.73 1.599939 0.44881821)
(12.73 1.550061 0.65118182)
(12.73 1.526571 0.64227343)
(12.73 1.505896 0.62800229)
(12.73 1.489237 0.60919797)
(12.73 1.477562 0.5869534)
(12.73 1.47155 0.56256109)
(12.73 1.47155 0.53743893)
(12.73 1.477562 0.51304662)
(12.73 1.489237 0.49080199)
(12.73 1.505896 0.47199771)
(12.73 1.526571 0.4577266)
(12.73 1.550061 0.44881821)
(12.73 1.575 0.44578999)
)

// edges

187
(
(19 20)
(21 19)
(22 21)
(23 22)
(24 23)
(25 24)
(26 25)
(27 26)
(28 27)
(29 28)
(30 29)
(31 30)
(32 31)
(33 32)
(34 33)
(35 34)
(36 35)
(37 36)
(38 37)
(39 38)
(40 39)
(41 40)
(42 41)
(43 42)
(44 43)
(20 44)
(1 0)
(0 2)
(2 3)
(3 1)
(5 14)
(4 5)
(3 4)
(6 1)
(14 6)
(2 15)
(15 7)
(8 16)
(9 4)
(16 9)
(45 8)
(7 45)
(0 10)
(10 17)
(6 10)
(11 17)
(46 11)
(5 12)
(12 18)
(13 46)
(18 13)
(9 12)
(11 7)
(13 8)
(47 48)
(49 47)
(50 49)
(51 50)
(52 51)
(53 52)
(54 53)
(55 54)
(56 55)
(57 56)
(58 57)
(59 58)
(60 59)
(61 60)
(62 61)
(63 62)
(64 63)
(65 64)
(66 65)
(67 66)
(68 67)
(69 68)
(70 69)
(71 70)
(72 71)
(48 72)
(73 74)
(75 73)
(76 75)
(77 76)
(78 77)
(79 78)
(80 79)
(81 80)
(82 81)
(83 82)
(84 83)
(85 84)
(86 85)
(87 86)
(88 87)
(89 88)
(90 89)
(91 90)
(92 91)
(93 92)
(94 93)
(95 94)
(96 95)
(97 96)
(98 97)
(74 98)
(99 100)
(101 99)
(102 101)
(103 102)
(104 103)
(105 104)
(106 105)
(107 106)
(108 107)
(109 108)
(110 109)
(111 110)
(112 111)
(113 112)
(114 113)
(115 114)
(116 115)
(117 116)
(118 117)
(119 118)
(120 119)
(121 120)
(122 121)
(123 122)
(124 123)
(100 124)
(125 126)
(127 125)
(126 128)
(128 129)
(130 131)
(129 132)
(133 130)
(132 134)
(134 135)
(135 136)
(136 137)
(137 138)
(138 139)
(139 140)
(141 133)
(142 141)
(143 142)
(144 143)
(145 144)
(146 145)
(147 146)
(148 147)
(149 148)
(150 149)
(140 150)
(131 127)
(17 15)
(14 17)
(151 152)
(153 151)
(152 154)
(155 153)
(154 156)
(157 155)
(156 158)
(158 159)
(159 160)
(160 161)
(161 162)
(162 163)
(164 157)
(165 164)
(166 165)
(167 166)
(168 167)
(169 168)
(170 169)
(171 170)
(172 171)
(173 172)
(174 173)
(175 174)
(176 175)
(163 176)
(18 16)
)

// concaveStart mixedStart nonFeatureStart
14 14 19
// internalStart flatStart openStart multipleStart
106 187 187 187
// normals

349
(
(-1 0 0)
(0 -0.12053869 0.99270863)
(-1 0 0)
(0 -0.35459988 0.93501814)
(0 -0.56806867 0.82298115)
(-1 0 0)
(0 -0.74851055 0.66312288)
(0 -0.88545305 0.46472885)
(-1 0 0)
(0 -0.9709409 0.23931939)
(-1 0 0)
(0 -1 0)
(-1 0 0)
(-0 -0.9709409 -0.23931939)
(-1 0 0)
(-0 -0.88545305 -0.46472885)
(-1 0 -0)
(-0 -0.74851055 -0.66312288)
(-1 0 0)
(-0 -0.56806867 -0.82298115)
(-1 0 0)
(-0 -0.35459988 -0.93501814)
(-1 0 0)
(-0 -0.12053869 -0.99270863)
(-1 0 0)
(0 0.12053947 -0.99270854)
(-1 0 0)
(0 0.35459773 -0.93501896)
(-1 0 0)
(0 0.56806867 -0.82298115)
(-1 0 0)
(0 0.74851378 -0.66311924)
(-1 0 0)
(0 0.88545305 -0.46472885)
(-1 0 0)
(0 0.9709409 -0.23931939)
(-1 0 0)
(0 1 0)
(-1 0 0)
(0 0.9709409 0.23931939)
(-1 0 0)
(0 0.88545305 0.46472885)
(-1 0 0)
(0 0.74851378 0.66311924)
(-1 0 0)
(0 0.56806867 0.82298115)
(-1 0 0)
(0 0.35459773 0.93501896)
(-1 0 0)
(0 0.12053947 0.99270854)
(-1 0 0)
(0 1 0)
(-1 0 0)
(0 0 -1)
(-1 0 0)
(0 -1 0)
(-1 0 0)
(0 0 1)
(-0 0 1)
(0 1 0)
(1 -0 0)
(0 0 1)
(-0 -1 0)
(-0 0 1)
(1 0 0)
(0 -0 -1)
(-1.4632337e-16 -1 0)
(-1 0 0)
(-9.0410885e-17 -1 -0)
(1 0 0)
(0 -1 -0)
(1 0 0)
(0 -0 -1)
(-1.0761116e-14 -1 9.7714082e-14)
(0.10946139 0.0099338351 -0.99394141)
(-3.6687113e-14 -1 -1.6656486e-13)
(-0.21509117 0.0097453261 -0.97654535)
(0 0 -1)
(0 1 0)
(1 0 0)
(0 1 0)
(-1 0 0)
(-0.19610675 0.0097855704 -0.98053373)
(0 1 -0)
(1 -0 0)
(-0 0 -1)
(0 1 -0)
(0.099498798 0.0099449767 -0.99498798)
(1 0 0)
(1 0 0)
(-0.20563708 0 -0.97862832)
(0.10448886 0 -0.99452606)
(-0.12056032 0 0.992706)
(0 -1 0)
(-0.35458137 0 0.93502516)
(0 -1 0)
(-0.56807087 0 0.82297964)
(0 -1 0)
(-0.74852092 0 0.66311118)
(-0 -1 0)
(-0.8854487 0 0.46473712)
(0 -1 0)
(-0.97093976 0 0.23932401)
(0 -1 0)
(-1 0 0)
(0 -1 0)
(-0.97093902 0 -0.23932703)
(0 -1 0)
(-0.88545151 0 -0.46473177)
(0 -1 0)
(-0.74852092 0 -0.66311118)
(0 -1 0)
(-0.56807087 0 -0.82297964)
(0 -1 0)
(-0.35458137 0 -0.93502516)
(0 -1 0)
(-0.12056032 0 -0.992706)
(0 -1 0)
(0.12056343 0 -0.99270563)
(0 -1 0)
(0.35458137 0 -0.93502516)
(0 -1 0)
(0.56807087 0 -0.82297964)
(0 -1 -0)
(0.74852092 0 -0.66311118)
(0 -1 0)
(0.88545151 0 -0.46473177)
(0 -1 0)
(0.97093902 0 -0.23932703)
(0 -1 0)
(1 0 0)
(0 -1 0)
(0.97093976 0 0.23932401)
(0 -1 0)
(0.8854487 0 0.46473712)
(0 -1 0)
(0.74852092 0 0.66311118)
(0.56807087 0 0.82297964)
(0 -1 0)
(0.35458137 0 0.93502516)
(0.12056343 0 0.99270563)
(0 -1 0)
(0 -0.12053685 0.99270885)
(1 0 0)
(0 -0.35459888 0.93501852)
(1 0 0)
(0 -0.56806945 0.82298062)
(0 -0.74851362 0.66311942)
(1 0 0)
(0 -0.8854536 0.46472779)
(0 -0.97094367 0.23930813)
(1 0 0)
(0 -1 0)
(1 0 0)
(0 -0.97094367 -0.23930813)
(1 0 0)
(0 -0.88545412 -0.46472681)
(1 0 0)
(0 -0.74851309 -0.66312001)
(1 0 0)
(0 -0.56806865 -0.82298117)
(1 0 0)
(0 -0.35459888 -0.93501852)
(1 0 0)
(0 -0.12053918 -0.99270857)
(1 0 0)
(0 0.12053975 -0.9927085)
(1 0 0)
(0 0.35459888 -0.93501852)
(1 0 0)
(0 0.56806865 -0.82298117)
(1 0 0)
(0 0.74851309 -0.66312001)
(1 0 0)
(0 0.88545412 -0.46472681)
(1 0 0)
(0 0.97094367 -0.23930813)
(1 0 0)
(0 1 0)
(1 0 0)
(0 0.97094367 0.23930813)
(1 0 0)
(0 0.8854536 0.46472779)
(1 0 0)
(0 0.74851362 0.66311942)
(1 -0 0)
(0 0.56806945 0.82298062)
(1 0 0)
(0 0.35459888 0.93501852)
(1 0 0)
(0 0.12053741 0.99270879)
(1 0 0)
(0 -0.12053869 0.99270863)
(-1 0 0)
(0 -0.35459988 0.93501814)
(-1 0 0)
(0 -0.56806867 0.82298115)
(-1 0 0)
(0 -0.74851055 0.66312288)
(-1 0 0)
(0 -0.88545305 0.46472885)
(-1 0 0)
(0 -0.9709409 0.23931939)
(-1 0 0)
(0 -1 0)
(-1 0 0)
(0 -0.9709409 -0.23931939)
(-1 0 0)
(0 -0.88545305 -0.46472885)
(-1 0 0)
(0 -0.74851055 -0.66312288)
(-1 0 0)
(0 -0.56806867 -0.82298115)
(-1 0 0)
(0 -0.35459988 -0.93501814)
(-1 0 0)
(0 -0.12053869 -0.99270863)
(-1 0 0)
(0 0.12053947 -0.99270854)
(-1 0 0)
(0 0.35459773 -0.93501896)
(-1 0 0)
(0 0.56806867 -0.82298115)
(-1 0 0)
(0 0.74851378 -0.66311924)
(-1 0 -0)
(0 0.88545305 -0.46472885)
(-1 0 -0)
(0 0.9709409 -0.23931939)
(-1 0 -0)
(0 1 0)
(-1 0 0)
(0 0.9709409 0.23931939)
(-1 0 0)
(0 0.88545305 0.46472885)
(-1 0 0)
(0 0.74851378 0.66311924)
(-1 0 0)
(0 0.56806867 0.82298115)
(-1 0 0)
(0 0.35459773 0.93501896)
(-1 0 0)
(0 0.12053947 0.99270854)
(-1 0 0)
(-2.2916688e-15 -1 -9.8985483e-15)
(-0.74852092 0 -0.66311118)
(-4.2785307e-15 -1 -1.9065859e-14)
(-0.56807087 0 -0.82297964)
(-1.3237523e-15 -1 -5.3563987e-15)
(-0.88545151 0 -0.46473177)
(-6.9978401e-16 -1 -2.3616564e-15)
(-0.97093902 0 -0.23932703)
(7.06562e-15 -1 -1.4954834e-14)
(-0.12056032 0 -0.992706)
(-2.2085766e-16 -1 -0)
(-1 0 0)
(1.1955209e-14 -1 -2.530396e-14)
(0.12056343 0 -0.99270563)
(2.0015666e-16 -1 2.1398012e-15)
(-0.97093976 0 0.23932401)
(6.189443e-16 -1 4.3368324e-15)
(-0.8854487 0 0.46473712)
(1.0925936e-15 -1 6.9004461e-15)
(-0.74852092 0 0.66311118)
(4.9573912e-15 -1 5.6855291e-15)
(-0.56807087 0 0.82297964)
(6.1971871e-15 -1 7.0787475e-15)
(-0.35458137 0 0.93502516)
(7.8014541e-15 -1 8.8959015e-15)
(-0.12056032 0 0.992706)
(1.030984e-14 -1 1.1756183e-14)
(0.12056343 -0 0.99270563)
(-3.6592109e-15 -1 3.3069904e-14)
(0.35458137 0 -0.93502516)
(-1.7279981e-15 -1 1.5370833e-14)
(0.56807087 0 -0.82297964)
(-1.0170865e-15 -1 8.7694018e-15)
(0.74852092 0 -0.66311118)
(-6.1724517e-16 -1 4.9855864e-15)
(0.88545151 0 -0.46473177)
(-3.3730478e-16 -1 2.2723088e-15)
(0.97093902 0 -0.23932703)
(-1.0928586e-16 -1 0)
(1 -0 0)
(1.0141213e-16 -1 -2.1641404e-15)
(0.97093976 -0 0.23932401)
(3.2124115e-16 -1 -4.4930851e-15)
(0.8854487 -0 0.46473712)
(2.6558111e-15 -1 -5.515599e-15)
(0.74852092 -0 0.66311118)
(3.6656376e-15 -1 -7.5569276e-15)
(0.56807087 -0 0.82297964)
(4.992621e-15 -1 -1.0255168e-14)
(0.35458137 -0 0.93502516)
(-1.2388843e-14 -1 -5.6089797e-14)
(-0.35458137 0 -0.93502516)
(0 1 0)
(1 0 -0)
(0 0.74851362 0.66311942)
(1 -0 0)
(0 0.56806945 0.82298062)
(1 0 -0)
(0 0.8854536 0.46472779)
(1 -0 0)
(0 0.35459888 0.93501852)
(1 -0 -0)
(0 0.97094367 0.23930813)
(1 -0 0)
(0 0.12053741 0.99270879)
(1 -0 0)
(0 1 0)
(1 -0 0)
(0 0.97094367 -0.23930813)
(1 -0 0)
(0 0.88545412 -0.46472681)
(1 -0 0)
(0 0.74851309 -0.66312001)
(1 -0 0)
(0 0.56806865 -0.82298117)
(1 -0 0)
(0 0.35459888 -0.93501852)
(1 0 0)
(0 -0.12053685 0.99270885)
(1 0 0)
(0 -0.35459888 0.93501852)
(1 0 0)
(0 -0.56806945 0.82298062)
(1 0 0)
(0 -0.74851362 0.66311942)
(1 0 0)
(0 -0.8854536 0.46472779)
(1 0 0)
(0 -0.97094367 0.23930813)
(1 0 0)
(0 -1 0)
(1 0 0)
(-0 -0.97094367 -0.23930813)
(1 0 0)
(-0 -0.88545412 -0.46472681)
(1 0 0)
(-0 -0.74851309 -0.66312001)
(1 0 0)
(-0 -0.56806865 -0.82298117)
(1 0 0)
(-0 -0.35459888 -0.93501852)
(1 0 0)
(-0 -0.12053918 -0.99270857)
(1 0 0)
(0 0.12053975 -0.9927085)
)

// normal volume types

349
(
0
0
0
0
0
0
0
0
0
0
0
0
0
0
0
0
0
0
0
0
0
0
0
0
0
0
0
0
0
0
0
0
0
0
0
0
0
0
0
0
0
0
0
0
0
0
0
0
0
0
0
0
0
0
0
0
0
0
0
0
0
0
0
0
0
0
0
0
0
0
0
0
0
0
0
0
0
0
0
0
0
0
0
0
0
0
0
0
0
0
0
0
0
0
0
0
0
0
0
0
0
0
0
0
0
0
0
0
0
0
0
0
0
0
0
0
0
0
0
0
0
0
0
0
0
0
0
0
0
0
0
0
0
0
0
0
0
0
0
0
0
0
0
0
0
0
0
0
0
0
0
0
0
0
0
0
0
0
0
0
0
0
0
0
0
0
0
0
0
0
0
0
0
0
0
0
0
0
0
0
0
0
0
0
0
0
0
0
0
0
0
0
0
0
0
0
0
0
0
0
0
0
0
0
0
0
0
0
0
0
0
0
0
0
0
0
0
0
0
0
0
0
0
0
0
0
0
0
0
0
0
0
0
0
0
0
0
0
0
0
0
0
0
0
0
0
0
0
0
0
0
0
0
0
0
0
0
0
0
0
0
0
0
0
0
0
0
0
0
0
0
0
0
0
0
0
0
0
0
0
0
0
0
0
0
0
0
0
0
0
0
0
0
0
0
0
0
0
0
0
0
0
0
0
0
0
0
0
0
0
0
0
0
0
0
0
0
0
0
0
0
0
0
0
0
0
0
0
0
0
0
0
0
0
0
0
0
0
0
0
0
0
0
0
0
0
0
0
0
)

// normalDirections

187
(
2(1 -1)
2(1 -1)
2(1 -1)
2(1 -1)
2(1 -1)
2(1 -1)
2(1 -1)
2(1 -1)
2(1 -1)
2(1 -1)
2(1 -1)
2(1 -1)
2(1 -1)
2(1 -1)
2(1 -1)
2(1 -1)
2(1 -1)
2(1 -1)
2(1 -1)
2(1 -1)
2(1 -1)
2(1 -1)
2(1 -1)
2(1 -1)
2(1 -1)
2(1 -1)
2(1 -1)
2(1 -1)
2(1 -1)
2(1 -1)
2(1 -1)
2(1 -1)
2(1 -1)
2(1 -1)
2(1 -1)
2(1 -1)
2(1 -1)
2(1 -1)
2(1 -1)
2(1 -1)
2(1 -1)
2(1 -1)
2(1 -1)
2(1 -1)
2(1 -1)
2(1 -1)
2(1 -1)
2(1 -1)
2(1 -1)
2(1 -1)
2(1 -1)
2(1 -1)
2(1 -1)
2(1 -1)
2(1 -1)
2(1 -1)
2(1 -1)
2(1 -1)
2(1 -1)
2(1 -1)
2(1 -1)
2(1 -1)
2(1 -1)
2(1 -1)
2(1 -1)
2(1 -1)
2(1 -1)
2(1 -1)
2(1 -1)
2(1 -1)
2(1 -1)
2(1 -1)
2(1 -1)
2(1 -1)
2(1 -1)
2(1 -1)
2(1 -1)
2(1 -1)
2(1 -1)
2(1 -1)
2(1 -1)
2(1 -1)
2(1 -1)
2(1 -1)
2(1 -1)
2(1 -1)
2(1 -1)
2(1 -1)
2(1 -1)
2(1 -1)
2(1 -1)
2(1 -1)
2(1 -1)
2(1 -1)
2(1 -1)
2(1 -1)
2(1 -1)
2(1 -1)
2(1 -1)
2(1 -1)
2(1 -1)
2(1 -1)
2(1 -1)
2(1 -1)
2(1 -1)
2(1 -1)
2(1 -1)
2(1 -1)
2(1 -1)
2(1 -1)
2(1 -1)
2(1 -1)
2(1 -1)
2(1 -1)
2(1 -1)
2(1 -1)
2(1 -1)
2(1 -1)
2(1 -1)
2(1 -1)
2(1 -1)
2(1 -1)
2(1 -1)
2(1 -1)
2(1 -1)
2(1 -1)
2(1 -1)
2(1 -1)
2(1 -1)
2(1 -1)
2(1 -1)
2(1 -1)
2(1 -1)
2(1 -1)
2(1 -1)
2(1 -1)
2(1 -1)
2(1 -1)
2(1 -1)
2(1 -1)
2(1 -1)
2(1 -1)
2(1 -1)
2(1 -1)
2(1 -1)
2(1 -1)
2(1 -1)
2(1 -1)
2(1 -1)
2(1 -1)
2(1 -1)
2(1 -1)
2(1 -1)
2(1 -1)
2(1 -1)
2(1 -1)
2(1 -1)
2(1 -1)
2(1 -1)
2(1 -1)
2(1 -1)
2(1 -1)
2(1 -1)
2(1 -1)
2(1 -1)
2(1 -1)
2(1 -1)
2(1 -1)
2(1 -1)
2(1 -1)
2(1 -1)
2(1 -1)
2(1 -1)
2(1 -1)
2(1 -1)
2(1 -1)
2(1 -1)
2(1 -1)
2(1 -1)
2(1 -1)
2(1 -1)
2(1 -1)
2(1 -1)
2(1 -1)
2(1 -1)
2(1 -1)
2(1 -1)
)

// edgeNormals

187
(
2(0 1)
2(2 3)
2(2 4)
2(5 6)
2(5 7)
2(8 9)
2(10 11)
2(12 13)
2(14 15)
2(16 17)
2(18 19)
2(20 21)
2(22 23)
2(24 25)
2(26 27)
2(28 29)
2(30 31)
2(32 33)
2(34 35)
2(36 37)
2(38 39)
2(40 41)
2(42 43)
2(44 45)
2(46 47)
2(48 49)
2(50 51)
2(52 53)
2(54 55)
2(56 57)
2(58 59)
2(58 60)
2(61 62)
2(63 51)
2(63 64)
2(55 65)
2(66 67)
2(68 69)
2(70 71)
2(70 72)
2(73 74)
2(75 76)
2(77 78)
2(77 79)
2(78 79)
2(80 81)
2(80 82)
2(83 84)
2(83 85)
2(86 87)
2(86 88)
2(89 72)
2(67 90)
2(91 88)
2(92 93)
2(94 95)
2(96 97)
2(98 99)
2(100 101)
2(102 103)
2(104 105)
2(106 107)
2(108 109)
2(110 111)
2(112 113)
2(114 115)
2(116 117)
2(118 119)
2(120 121)
2(122 123)
2(124 125)
2(126 127)
2(128 129)
2(130 131)
2(132 133)
2(134 135)
2(136 135)
2(137 138)
2(139 138)
2(140 141)
2(142 143)
2(144 145)
2(146 145)
2(147 148)
2(149 148)
2(150 151)
2(152 153)
2(154 155)
2(156 157)
2(158 159)
2(160 161)
2(162 163)
2(164 165)
2(166 167)
2(168 169)
2(170 171)
2(172 173)
2(174 175)
2(176 177)
2(178 179)
2(180 181)
2(182 183)
2(184 185)
2(186 187)
2(188 189)
2(190 191)
2(192 193)
2(194 195)
2(196 197)
2(198 199)
2(200 201)
2(202 203)
2(204 205)
2(206 207)
2(208 209)
2(210 211)
2(212 213)
2(214 215)
2(216 217)
2(218 219)
2(220 221)
2(222 223)
2(224 225)
2(226 227)
2(228 229)
2(230 231)
2(232 233)
2(234 235)
2(236 237)
2(238 239)
2(240 241)
2(242 243)
2(244 245)
2(246 247)
2(248 249)
2(250 251)
2(252 253)
2(254 255)
2(256 257)
2(258 259)
2(260 261)
2(262 263)
2(264 265)
2(266 267)
2(268 269)
2(270 271)
2(272 273)
2(274 275)
2(276 277)
2(278 279)
2(280 281)
2(282 283)
2(284 285)
2(286 287)
2(288 289)
2(290 291)
2(292 293)
2(294 295)
2(65 81)
2(64 296)
2(297 298)
2(299 300)
2(301 302)
2(303 304)
2(305 306)
2(307 308)
2(309 310)
2(311 312)
2(313 314)
2(315 316)
2(317 318)
2(319 320)
2(321 322)
2(323 324)
2(325 326)
2(327 328)
2(329 330)
2(331 332)
2(333 334)
2(335 336)
2(337 338)
2(339 340)
2(341 342)
2(343 344)
2(345 346)
2(347 348)
2(69 85)
)

// featurePointNormals

19
(
3(50 51 53)
3(50 51 57)
3(52 53 55)
3(54 55 57)
3(58 60 62)
3(58 59 60)
3(63 51 64)
4(66 67 76 90)
4(68 69 74 91)
3(70 71 72)
3(77 78 79)
4(80 81 82 90)
3(83 84 85)
4(86 87 88 91)
3(58 59 64)
3(55 65 67)
3(68 69 72)
4(77 79 80 81)
3(83 85 88)
)

// featurePointEdges

19
(
3(27 42 26)
3(29 33 26)
3(27 35 28)
3(28 32 29)
3(32 38 31)
3(30 47 31)
3(33 44 34)
3(41 52 36)
3(37 53 40)
3(38 51 39)
3(42 44 43)
3(45 52 46)
3(47 51 48)
3(49 53 50)
3(34 159 30)
3(36 158 35)
3(39 186 37)
4(43 159 45 158)
3(48 186 50)
)

// regionEdges
0()


// ************************************************************************* //
