/*--------------------------------*- C++ -*----------------------------------*\
  =========                 |
  \\      /  F ield         | OpenFOAM: The Open Source CFD Toolbox
   \\    /   O peration     | Website:  https://openfoam.org
    \\  /    A nd           | Version:  dev
     \\/     M anipulation  |
\*---------------------------------------------------------------------------*/
FoamFile
{
    format      ascii;
    class       extendedFeatureEdgeMesh;
    location    "constant/extendedFeatureEdgeMesh";
    object      difusor2.extendedFeatureEdgeMesh;
}
// * * * * * * * * * * * * * * * * * * * * * * * * * * * * * * * * * * * * * //

// points

2504
(
(9.7799997 3.1500001 -0.1)
(9.7799997 3.1500001 1.2)
(9.9300003 3.1500001 1.2)
(9.9300003 3.1500001 -0.1)
(9.7799997 0 1.2)
(9.9300003 0 1.2)
(9.7799997 0 -0.1)
(9.9300003 0 -0.1)
(9.7799997 3.0276091 0.98976451)
(9.7799997 3.0164189 1.002396)
(9.7799997 3.0025311 1.011982)
(9.7799997 3.0354509 0.97482228)
(9.7799997 2.986752 1.017966)
(9.7799997 3.03949 0.95843762)
(9.7799997 2.97 1.02)
(9.7799997 3.03949 0.94156241)
(9.7799997 2.953248 1.017966)
(9.7799997 3.0164189 0.89760423)
(9.7799997 3.0276091 0.91023552)
(9.7799997 3.0276091 0.73976451)
(9.7799997 3.0164189 0.75239581)
(9.7799997 2.9235809 1.002396)
(9.7799997 2.9123909 0.98976451)
(9.7799997 2.7776091 0.98976451)
(9.7799997 2.7664189 1.002396)
(9.7799997 3.0025311 0.88801807)
(9.7799997 3.0025311 0.7619819)
(9.7799997 2.937469 1.011982)
(9.7799997 2.7525311 1.011982)
(9.7799997 3.0354509 0.92517769)
(9.7799997 3.0354509 0.72482228)
(9.7799997 2.9045489 0.97482228)
(9.7799997 2.7854509 0.97482228)
(9.7799997 2.986752 0.76796591)
(9.7799997 2.986752 0.88203412)
(9.7799997 2.736752 1.017966)
(9.7799997 3.03949 0.70843762)
(9.7799997 2.9005101 0.95843762)
(9.7799997 2.78949 0.95843762)
(9.7799997 2.97 0.76999998)
(9.7799997 2.97 0.88)
(9.7799997 2.72 1.02)
(9.7799997 3.03949 0.69156241)
(9.7799997 2.9005101 0.94156241)
(9.7799997 2.78949 0.94156241)
(9.7799997 2.953248 0.88203412)
(9.7799997 2.953248 0.76796591)
(9.7799997 2.703248 1.017966)
(9.7799997 2.9045489 0.92517769)
(9.7799997 2.7854509 0.92517769)
(9.7799997 2.937469 0.88801807)
(9.7799997 2.937469 0.7619819)
(9.7799997 2.7776091 0.91023552)
(9.7799997 2.9123909 0.91023552)
(9.7799997 2.9235809 0.75239581)
(9.7799997 2.9235809 0.89760423)
(9.7799997 2.7664189 0.89760423)
(9.7799997 3.0276091 0.48976451)
(9.7799997 3.0164189 0.50239581)
(9.7799997 3.0164189 0.64760423)
(9.7799997 3.0276091 0.66023552)
(9.7799997 2.7776091 0.73976451)
(9.7799997 2.7664189 0.75239581)
(9.7799997 2.9123909 0.73976451)
(9.7799997 2.6735809 1.002396)
(9.7799997 2.6623909 0.98976451)
(9.7799997 2.5276091 0.98976451)
(9.7799997 2.5164189 1.002396)
(9.7799997 3.0025311 0.5119819)
(9.7799997 3.0025311 0.63801807)
(9.7799997 2.7525311 0.88801807)
(9.7799997 2.7525311 0.7619819)
(9.7799997 2.687469 1.011982)
(9.7799997 2.5025311 1.011982)
(9.7799997 3.0354509 0.47482231)
(9.7799997 3.0354509 0.67517769)
(9.7799997 2.7854509 0.72482228)
(9.7799997 2.9045489 0.72482228)
(9.7799997 2.5354509 0.97482228)
(9.7799997 2.6545489 0.97482228)
(9.7799997 2.986752 0.51796591)
(9.7799997 2.986752 0.63203412)
(9.7799997 2.736752 0.76796591)
(9.7799997 2.736752 0.88203412)
(9.7799997 2.486752 1.017966)
(9.7799997 3.03949 0.45843759)
(9.7799997 2.78949 0.70843762)
(9.7799997 2.9005101 0.70843762)
(9.7799997 2.6505101 0.95843762)
(9.7799997 2.53949 0.95843762)
(9.7799997 2.97 0.51999998)
(9.7799997 2.97 0.63)
(9.7799997 2.72 0.76999998)
(9.7799997 2.72 0.88)
(9.7799997 2.47 1.02)
(9.7799997 2.78949 0.69156241)
(9.7799997 2.9005101 0.69156241)
(9.7799997 2.6505101 0.94156241)
(9.7799997 2.53949 0.94156241)
(9.7799997 2.953248 0.51796591)
(9.7799997 2.953248 0.63203412)
(9.7799997 2.703248 0.76796591)
(9.7799997 2.703248 0.88203412)
(9.7799997 2.7854509 0.67517769)
(9.7799997 2.9045489 0.67517769)
(9.7799997 2.6545489 0.92517769)
(9.7799997 2.5354509 0.92517769)
(9.7799997 2.937469 0.5119819)
(9.7799997 2.937469 0.63801807)
(9.7799997 2.687469 0.88801807)
(9.7799997 2.687469 0.7619819)
(9.7799997 2.7776091 0.66023552)
(9.7799997 2.9123909 0.66023552)
(9.7799997 2.9235809 0.64760423)
(9.7799997 2.6623909 0.91023552)
(9.7799997 2.5276091 0.91023552)
(9.7799997 2.9235809 0.50239581)
(9.7799997 2.6735809 0.89760423)
(9.7799997 2.6735809 0.75239581)
(9.7799997 2.5164189 0.89760423)
(9.7799997 2.7664189 0.64760423)
(9.7799997 2.4235809 1.002396)
(9.7799997 2.4123909 0.98976451)
(9.7799997 2.6623909 0.73976451)
(9.7799997 3.0164189 0.3976042)
(9.7799997 3.0276091 0.41023549)
(9.7799997 3.0276091 0.2397645)
(9.7799997 3.0164189 0.25239581)
(9.7799997 2.9123909 0.48976451)
(9.7799997 2.7776091 0.48976451)
(9.7799997 2.7664189 0.50239581)
(9.7799997 2.2776091 0.98976451)
(9.7799997 2.2664189 1.002396)
(9.7799997 2.5276091 0.73976451)
(9.7799997 2.5164189 0.75239581)
(9.7799997 3.0025311 0.3880181)
(9.7799997 3.0025311 0.2619819)
(9.7799997 2.7525311 0.63801807)
(9.7799997 2.7525311 0.5119819)
(9.7799997 2.5025311 0.7619819)
(9.7799997 2.5025311 0.88801807)
(9.7799997 2.2525311 1.011982)
(9.7799997 2.437469 1.011982)
(9.7799997 3.0354509 0.42517769)
(9.7799997 3.0354509 0.2248223)
(9.7799997 2.7854509 0.47482231)
(9.7799997 2.9045489 0.47482231)
(9.7799997 2.4045489 0.97482228)
(9.7799997 2.2854509 0.97482228)
(9.7799997 2.6545489 0.72482228)
(9.7799997 2.5354509 0.72482228)
(9.7799997 2.986752 0.38203409)
(9.7799997 2.986752 0.26796591)
(9.7799997 2.736752 0.63203412)
(9.7799997 2.736752 0.51796591)
(9.7799997 2.486752 0.88203412)
(9.7799997 2.486752 0.76796591)
(9.7799997 2.453248 1.017966)
(9.7799997 2.236752 1.017966)
(9.7799997 3.03949 0.44156241)
(9.7799997 3.03949 0.20843761)
(9.7799997 2.9005101 0.45843759)
(9.7799997 2.9005101 0.44156241)
(9.7799997 2.78949 0.45843759)
(9.7799997 2.6505101 0.70843762)
(9.7799997 2.53949 0.70843762)
(9.7799997 2.28949 0.95843762)
(9.7799997 2.4005101 0.95843762)
(9.7799997 2.97 0.38)
(9.7799997 2.97 0.27000001)
(9.7799997 2.72 0.63)
(9.7799997 2.72 0.51999998)
(9.7799997 2.47 0.76999998)
(9.7799997 2.47 0.88)
(9.7799997 2.22 1.02)
(9.7799997 2.9045489 0.42517769)
(9.7799997 2.78949 0.44156241)
(9.7799997 2.6505101 0.69156241)
(9.7799997 2.53949 0.69156241)
(9.7799997 2.28949 0.94156241)
(9.7799997 2.4005101 0.94156241)
(9.7799997 2.937469 0.3880181)
(9.7799997 2.953248 0.38203409)
(9.7799997 2.953248 0.26796591)
(9.7799997 2.703248 0.63203412)
(9.7799997 2.703248 0.51796591)
(9.7799997 2.453248 0.76796591)
(9.7799997 2.453248 0.88203412)
(9.7799997 2.9123909 0.41023549)
(9.7799997 2.7854509 0.42517769)
(9.7799997 2.6545489 0.67517769)
(9.7799997 2.5354509 0.67517769)
(9.7799997 2.2854509 0.92517769)
(9.7799997 2.4045489 0.92517769)
(9.7799997 2.937469 0.2619819)
(9.7799997 2.437469 0.7619819)
(9.7799997 2.437469 0.88801807)
(9.7799997 2.687469 0.5119819)
(9.7799997 2.687469 0.63801807)
(9.7799997 2.5276091 0.66023552)
(9.7799997 2.6623909 0.66023552)
(9.7799997 2.7776091 0.41023549)
(9.7799997 2.2776091 0.91023552)
(9.7799997 2.4123909 0.91023552)
(9.7799997 2.4235809 0.89760423)
(9.7799997 2.9235809 0.25239581)
(9.7799997 2.9235809 0.3976042)
(9.7799997 2.4235809 0.75239581)
(9.7799997 2.6735809 0.64760423)
(9.7799997 2.6735809 0.50239581)
(9.7799997 2.7664189 0.3976042)
(9.7799997 2.5164189 0.64760423)
(9.7799997 2.2664189 0.89760423)
(9.7799997 2.953248 0.13203409)
(9.7799997 2.97 0.13)
(9.7799997 2.986752 0.13203409)
(9.7799997 3.0025311 0.1380181)
(9.7799997 3.0164189 0.1476042)
(9.7799997 3.0276091 0.16023549)
(9.7799997 3.0354509 0.17517769)
(9.7799997 3.03949 0.1915624)
(9.7799997 2.7776091 0.2397645)
(9.7799997 2.7664189 0.25239581)
(9.7799997 2.9123909 0.2397645)
(9.7799997 2.5276091 0.48976451)
(9.7799997 2.5164189 0.50239581)
(9.7799997 2.6623909 0.48976451)
(9.7799997 2.4123909 0.73976451)
(9.7799997 2.2776091 0.73976451)
(9.7799997 2.2664189 0.75239581)
(9.7799997 2.1735809 1.002396)
(9.7799997 2.1623909 0.98976451)
(9.7799997 2.0276091 0.98976451)
(9.7799997 2.0164189 1.002396)
(9.7799997 2.7525311 0.2619819)
(9.7799997 2.7525311 0.3880181)
(9.7799997 2.2525311 0.7619819)
(9.7799997 2.2525311 0.88801807)
(9.7799997 2.5025311 0.63801807)
(9.7799997 2.5025311 0.5119819)
(9.7799997 2.203248 1.017966)
(9.7799997 2.187469 1.011982)
(9.7799997 2.0025311 1.011982)
(9.7799997 2.7854509 0.2248223)
(9.7799997 2.9045489 0.2248223)
(9.7799997 2.5354509 0.47482231)
(9.7799997 2.6545489 0.47482231)
(9.7799997 2.2854509 0.72482228)
(9.7799997 2.4045489 0.72482228)
(9.7799997 2.1545489 0.97482228)
(9.7799997 2.0354509 0.97482228)
(9.7799997 2.736752 0.38203409)
(9.7799997 2.736752 0.26796591)
(9.7799997 2.47 0.63)
(9.7799997 2.486752 0.63203412)
(9.7799997 2.486752 0.51796591)
(9.7799997 2.236752 0.88203412)
(9.7799997 2.236752 0.76796591)
(9.7799997 1.986752 1.017966)
(9.7799997 2.78949 0.20843761)
(9.7799997 2.9005101 0.20843761)
(9.7799997 2.6505101 0.45843759)
(9.7799997 2.53949 0.45843759)
(9.7799997 2.4005101 0.70843762)
(9.7799997 2.28949 0.70843762)
(9.7799997 2.03949 0.95843762)
(9.7799997 2.1505101 0.95843762)
(9.7799997 2.72 0.38)
(9.7799997 2.72 0.27000001)
(9.7799997 2.47 0.51999998)
(9.7799997 2.22 0.76999998)
(9.7799997 2.22 0.88)
(9.7799997 1.97 1.02)
(9.7799997 2.78949 0.1915624)
(9.7799997 2.9005101 0.1915624)
(9.7799997 2.53949 0.44156241)
(9.7799997 2.6505101 0.44156241)
(9.7799997 2.6545489 0.42517769)
(9.7799997 2.4005101 0.69156241)
(9.7799997 2.28949 0.69156241)
(9.7799997 2.1505101 0.94156241)
(9.7799997 2.03949 0.94156241)
(9.7799997 2.703248 0.26796591)
(9.7799997 2.703248 0.38203409)
(9.7799997 2.453248 0.51796591)
(9.7799997 2.453248 0.63203412)
(9.7799997 2.203248 0.76796591)
(9.7799997 2.203248 0.88203412)
(9.7799997 2.5354509 0.42517769)
(9.7799997 2.7854509 0.17517769)
(9.7799997 2.9045489 0.17517769)
(9.7799997 2.2854509 0.67517769)
(9.7799997 2.4045489 0.67517769)
(9.7799997 2.1545489 0.92517769)
(9.7799997 2.1623909 0.91023552)
(9.7799997 2.0354509 0.92517769)
(9.7799997 2.437469 0.63801807)
(9.7799997 2.437469 0.5119819)
(9.7799997 2.687469 0.2619819)
(9.7799997 2.687469 0.3880181)
(9.7799997 2.187469 0.7619819)
(9.7799997 2.1735809 0.89760423)
(9.7799997 2.187469 0.88801807)
(9.7799997 2.9123909 0.16023549)
(9.7799997 2.9235809 0.1476042)
(9.7799997 2.7776091 0.16023549)
(9.7799997 2.6623909 0.41023549)
(9.7799997 2.6735809 0.3976042)
(9.7799997 2.5276091 0.41023549)
(9.7799997 2.4123909 0.66023552)
(9.7799997 2.4235809 0.64760423)
(9.7799997 2.2776091 0.66023552)
(9.7799997 2.0276091 0.91023552)
(9.7799997 2.6735809 0.25239581)
(9.7799997 2.4235809 0.50239581)
(9.7799997 2.1735809 0.75239581)
(9.7799997 2.7664189 0.1476042)
(9.7799997 2.5164189 0.3976042)
(9.7799997 2.2664189 0.64760423)
(9.7799997 2.0164189 0.89760423)
(9.7799997 2.937469 0.1380181)
(9.7799997 2.7525311 0.1380181)
(9.7799997 2.736752 0.13203409)
(9.7799997 2.72 0.13)
(9.7799997 2.703248 0.13203409)
(9.7799997 2.6623909 0.2397645)
(9.7799997 2.1623909 0.73976451)
(9.7799997 1.937469 1.011982)
(9.7799997 1.923581 1.002396)
(9.7799997 2.2776091 0.48976451)
(9.7799997 2.2664189 0.50239581)
(9.7799997 2.4123909 0.48976451)
(9.7799997 2.5276091 0.2397645)
(9.7799997 2.5164189 0.25239581)
(9.7799997 2.0276091 0.73976451)
(9.7799997 2.0164189 0.75239581)
(9.7799997 1.777609 0.98976451)
(9.7799997 1.7664191 1.002396)
(9.7799997 1.9123909 0.98976451)
(9.7799997 2.5025311 0.3880181)
(9.7799997 2.5025311 0.2619819)
(9.7799997 2.0025311 0.88801807)
(9.7799997 2.0025311 0.7619819)
(9.7799997 2.2525311 0.63801807)
(9.7799997 2.2525311 0.5119819)
(9.7799997 1.7525311 1.011982)
(9.7799997 2.4045489 0.47482231)
(9.7799997 2.2854509 0.47482231)
(9.7799997 2.5354509 0.2248223)
(9.7799997 2.6545489 0.2248223)
(9.7799997 2.1545489 0.72482228)
(9.7799997 2.0354509 0.72482228)
(9.7799997 1.7854511 0.97482228)
(9.7799997 1.904549 0.97482228)
(9.7799997 2.236752 0.51796591)
(9.7799997 2.236752 0.63203412)
(9.7799997 2.486752 0.38203409)
(9.7799997 2.486752 0.26796591)
(9.7799997 1.986752 0.76796591)
(9.7799997 1.986752 0.88203412)
(9.7799997 1.953248 1.017966)
(9.7799997 1.736752 1.017966)
(9.7799997 2.6505101 0.20843761)
(9.7799997 2.53949 0.20843761)
(9.7799997 2.4005101 0.45843759)
(9.7799997 2.28949 0.45843759)
(9.7799997 2.1505101 0.70843762)
(9.7799997 2.03949 0.70843762)
(9.7799997 1.78949 0.95843762)
(9.7799997 1.90051 0.95843762)
(9.7799997 2.47 0.27000001)
(9.7799997 2.47 0.38)
(9.7799997 2.22 0.51999998)
(9.7799997 2.22 0.63)
(9.7799997 1.97 0.76999998)
(9.7799997 1.97 0.88)
(9.7799997 1.72 1.02)
(9.7799997 2.6505101 0.1915624)
(9.7799997 2.6545489 0.17517769)
(9.7799997 2.53949 0.1915624)
(9.7799997 2.4005101 0.44156241)
(9.7799997 2.28949 0.44156241)
(9.7799997 2.03949 0.69156241)
(9.7799997 2.1505101 0.69156241)
(9.7799997 1.78949 0.94156241)
(9.7799997 1.90051 0.94156241)
(9.7799997 2.453248 0.26796591)
(9.7799997 2.453248 0.38203409)
(9.7799997 2.203248 0.51796591)
(9.7799997 2.203248 0.63203412)
(9.7799997 1.953248 0.76796591)
(9.7799997 1.953248 0.88203412)
(9.7799997 2.2854509 0.42517769)
(9.7799997 2.4045489 0.42517769)
(9.7799997 2.5354509 0.17517769)
(9.7799997 2.1545489 0.67517769)
(9.7799997 2.0354509 0.67517769)
(9.7799997 1.7854511 0.92517769)
(9.7799997 1.904549 0.92517769)
(9.7799997 1.9123909 0.91023552)
(9.7799997 2.437469 0.2619819)
(9.7799997 2.4235809 0.3976042)
(9.7799997 2.437469 0.3880181)
(9.7799997 2.187469 0.5119819)
(9.7799997 2.1735809 0.64760423)
(9.7799997 2.187469 0.63801807)
(9.7799997 1.937469 0.7619819)
(9.7799997 1.937469 0.88801807)
(9.7799997 2.2776091 0.41023549)
(9.7799997 2.4123909 0.41023549)
(9.7799997 2.6623909 0.16023549)
(9.7799997 2.5276091 0.16023549)
(9.7799997 2.1623909 0.66023552)
(9.7799997 2.0276091 0.66023552)
(9.7799997 1.777609 0.91023552)
(9.7799997 2.4235809 0.25239581)
(9.7799997 2.1735809 0.50239581)
(9.7799997 1.923581 0.75239581)
(9.7799997 1.923581 0.89760423)
(9.7799997 2.6735809 0.1476042)
(9.7799997 2.5164189 0.1476042)
(9.7799997 2.2664189 0.3976042)
(9.7799997 1.7664191 0.89760423)
(9.7799997 2.0164189 0.64760423)
(9.7799997 2.687469 0.1380181)
(9.7799997 2.5025311 0.1380181)
(9.7799997 2.486752 0.13203409)
(9.7799997 2.47 0.13)
(9.7799997 2.0276091 0.48976451)
(9.7799997 2.0164189 0.50239581)
(9.7799997 2.1623909 0.48976451)
(9.7799997 2.4123909 0.2397645)
(9.7799997 2.2776091 0.2397645)
(9.7799997 2.2664189 0.25239581)
(9.7799997 1.777609 0.73976451)
(9.7799997 1.7664191 0.75239581)
(9.7799997 1.9123909 0.73976451)
(9.7799997 1.673581 1.002396)
(9.7799997 1.6623909 0.98976451)
(9.7799997 1.527609 0.98976451)
(9.7799997 1.5164191 1.002396)
(9.7799997 2.2525311 0.3880181)
(9.7799997 2.2525311 0.2619819)
(9.7799997 2.0025311 0.5119819)
(9.7799997 2.0025311 0.63801807)
(9.7799997 1.7525311 0.7619819)
(9.7799997 1.7525311 0.88801807)
(9.7799997 1.687469 1.011982)
(9.7799997 1.5025311 1.011982)
(9.7799997 2.2854509 0.2248223)
(9.7799997 2.4045489 0.2248223)
(9.7799997 1.904549 0.72482228)
(9.7799997 1.90051 0.70843762)
(9.7799997 1.7854511 0.72482228)
(9.7799997 2.1545489 0.47482231)
(9.7799997 2.0354509 0.47482231)
(9.7799997 1.654549 0.97482228)
(9.7799997 1.5354511 0.97482228)
(9.7799997 1.986752 0.63203412)
(9.7799997 1.986752 0.51796591)
(9.7799997 2.236752 0.38203409)
(9.7799997 2.236752 0.26796591)
(9.7799997 1.736752 0.88203412)
(9.7799997 1.736752 0.76796591)
(9.7799997 1.703248 1.017966)
(9.7799997 1.486752 1.017966)
(9.7799997 2.4005101 0.20843761)
(9.7799997 2.28949 0.20843761)
(9.7799997 2.03949 0.45843759)
(9.7799997 2.1505101 0.45843759)
(9.7799997 1.78949 0.70843762)
(9.7799997 1.65051 0.95843762)
(9.7799997 1.53949 0.95843762)
(9.7799997 2.22 0.27000001)
(9.7799997 2.22 0.38)
(9.7799997 1.97 0.51999998)
(9.7799997 1.97 0.63)
(9.7799997 1.72 0.76999998)
(9.7799997 1.72 0.88)
(9.7799997 1.47 1.02)
(9.7799997 2.4005101 0.1915624)
(9.7799997 2.4045489 0.17517769)
(9.7799997 2.28949 0.1915624)
(9.7799997 1.78949 0.69156241)
(9.7799997 1.90051 0.69156241)
(9.7799997 2.1505101 0.44156241)
(9.7799997 2.03949 0.44156241)
(9.7799997 1.65051 0.94156241)
(9.7799997 1.53949 0.94156241)
(9.7799997 2.203248 0.26796591)
(9.7799997 2.187469 0.3880181)
(9.7799997 2.203248 0.38203409)
(9.7799997 1.703248 0.88203412)
(9.7799997 1.703248 0.76796591)
(9.7799997 1.953248 0.51796591)
(9.7799997 1.953248 0.63203412)
(9.7799997 2.0354509 0.42517769)
(9.7799997 2.1545489 0.42517769)
(9.7799997 2.4123909 0.16023549)
(9.7799997 2.2854509 0.17517769)
(9.7799997 1.7854511 0.67517769)
(9.7799997 1.904549 0.67517769)
(9.7799997 1.654549 0.92517769)
(9.7799997 1.6623909 0.91023552)
(9.7799997 1.5354511 0.92517769)
(9.7799997 2.187469 0.2619819)
(9.7799997 1.687469 0.88801807)
(9.7799997 1.687469 0.7619819)
(9.7799997 1.937469 0.5119819)
(9.7799997 1.923581 0.64760423)
(9.7799997 1.937469 0.63801807)
(9.7799997 2.0276091 0.41023549)
(9.7799997 2.1623909 0.41023549)
(9.7799997 2.4235809 0.1476042)
(9.7799997 2.2776091 0.16023549)
(9.7799997 1.777609 0.66023552)
(9.7799997 1.9123909 0.66023552)
(9.7799997 1.527609 0.91023552)
(9.7799997 2.1735809 0.25239581)
(9.7799997 2.1735809 0.3976042)
(9.7799997 1.923581 0.50239581)
(9.7799997 1.673581 0.89760423)
(9.7799997 1.673581 0.75239581)
(9.7799997 2.2664189 0.1476042)
(9.7799997 2.0164189 0.3976042)
(9.7799997 1.7664191 0.64760423)
(9.7799997 1.5164191 0.89760423)
(9.7799997 2.437469 0.1380181)
(9.7799997 2.2525311 0.1380181)
(9.7799997 2.453248 0.13203409)
(9.7799997 2.236752 0.13203409)
(9.7799997 2.22 0.13)
(9.7799997 2.1623909 0.2397645)
(9.7799997 2.0276091 0.2397645)
(9.7799997 2.0164189 0.25239581)
(9.7799997 1.777609 0.48976451)
(9.7799997 1.7664191 0.50239581)
(9.7799997 1.9123909 0.48976451)
(9.7799997 1.423581 1.002396)
(9.7799997 1.4123909 0.98976451)
(9.7799997 1.277609 0.98976451)
(9.7799997 1.2664191 1.002396)
(9.7799997 1.527609 0.73976451)
(9.7799997 1.5164191 0.75239581)
(9.7799997 1.6623909 0.73976451)
(9.7799997 2.0025311 0.3880181)
(9.7799997 2.0025311 0.2619819)
(9.7799997 1.7525311 0.63801807)
(9.7799997 1.7525311 0.5119819)
(9.7799997 1.437469 1.011982)
(9.7799997 1.2525311 1.011982)
(9.7799997 1.486752 0.88203412)
(9.7799997 1.5025311 0.88801807)
(9.7799997 1.5025311 0.7619819)
(9.7799997 2.1545489 0.2248223)
(9.7799997 2.0354509 0.2248223)
(9.7799997 1.404549 0.97482228)
(9.7799997 1.2854511 0.97482228)
(9.7799997 1.5354511 0.72482228)
(9.7799997 1.654549 0.72482228)
(9.7799997 1.65051 0.70843762)
(9.7799997 1.7854511 0.47482231)
(9.7799997 1.904549 0.47482231)
(9.7799997 1.986752 0.26796591)
(9.7799997 1.986752 0.38203409)
(9.7799997 1.736752 0.63203412)
(9.7799997 1.736752 0.51796591)
(9.7799997 1.453248 1.017966)
(9.7799997 1.236752 1.017966)
(9.7799997 1.47 0.88)
(9.7799997 1.486752 0.76796591)
(9.7799997 1.78949 0.45843759)
(9.7799997 1.90051 0.45843759)
(9.7799997 2.03949 0.20843761)
(9.7799997 2.1505101 0.20843761)
(9.7799997 1.28949 0.95843762)
(9.7799997 1.40051 0.95843762)
(9.7799997 1.53949 0.70843762)
(9.7799997 1.97 0.38)
(9.7799997 1.97 0.27000001)
(9.7799997 1.703248 0.63203412)
(9.7799997 1.72 0.63)
(9.7799997 1.72 0.51999998)
(9.7799997 1.22 1.02)
(9.7799997 1.47 0.76999998)
(9.7799997 1.90051 0.44156241)
(9.7799997 1.904549 0.42517769)
(9.7799997 1.78949 0.44156241)
(9.7799997 2.03949 0.1915624)
(9.7799997 2.1505101 0.1915624)
(9.7799997 1.28949 0.94156241)
(9.7799997 1.40051 0.94156241)
(9.7799997 1.53949 0.69156241)
(9.7799997 1.65051 0.69156241)
(9.7799997 1.703248 0.51796591)
(9.7799997 1.687469 0.63801807)
(9.7799997 1.937469 0.3880181)
(9.7799997 1.953248 0.38203409)
(9.7799997 1.953248 0.26796591)
(9.7799997 1.453248 0.76796591)
(9.7799997 1.453248 0.88203412)
(9.7799997 1.7854511 0.42517769)
(9.7799997 2.0354509 0.17517769)
(9.7799997 2.1545489 0.17517769)
(9.7799997 1.404549 0.92517769)
(9.7799997 1.2854511 0.92517769)
(9.7799997 1.5354511 0.67517769)
(9.7799997 1.654549 0.67517769)
(9.7799997 1.6623909 0.66023552)
(9.7799997 1.937469 0.2619819)
(9.7799997 1.687469 0.5119819)
(9.7799997 1.673581 0.64760423)
(9.7799997 1.437469 0.88801807)
(9.7799997 1.437469 0.7619819)
(9.7799997 2.0276091 0.16023549)
(9.7799997 2.1623909 0.16023549)
(9.7799997 2.1735809 0.1476042)
(9.7799997 1.9123909 0.41023549)
(9.7799997 1.777609 0.41023549)
(9.7799997 1.4123909 0.91023552)
(9.7799997 1.423581 0.89760423)
(9.7799997 1.277609 0.91023552)
(9.7799997 1.527609 0.66023552)
(9.7799997 1.923581 0.3976042)
(9.7799997 1.923581 0.25239581)
(9.7799997 1.673581 0.50239581)
(9.7799997 1.423581 0.75239581)
(9.7799997 1.7664191 0.3976042)
(9.7799997 2.187469 0.1380181)
(9.7799997 2.0164189 0.1476042)
(9.7799997 1.2664191 0.89760423)
(9.7799997 1.5164191 0.64760423)
(9.7799997 2.0025311 0.1380181)
(9.7799997 1.986752 0.13203409)
(9.7799997 2.203248 0.13203409)
(9.7799997 1.97 0.13)
(9.7799997 1.4123909 0.73976451)
(9.7799997 1.777609 0.2397645)
(9.7799997 1.7664191 0.25239581)
(9.7799997 1.9123909 0.2397645)
(9.7799997 1.904549 0.2248223)
(9.7799997 1.6623909 0.48976451)
(9.7799997 1.527609 0.48976451)
(9.7799997 1.5164191 0.50239581)
(9.7799997 1.027609 0.98976451)
(9.7799997 1.0164191 1.002396)
(9.7799997 1.173581 1.002396)
(9.7799997 1.1623909 0.98976451)
(9.7799997 1.277609 0.73976451)
(9.7799997 1.2664191 0.75239581)
(9.7799997 1.7525311 0.3880181)
(9.7799997 1.7525311 0.2619819)
(9.7799997 1.5025311 0.63801807)
(9.7799997 1.5025311 0.5119819)
(9.7799997 1.0025311 1.011982)
(9.7799997 1.203248 1.017966)
(9.7799997 1.187469 1.011982)
(9.7799997 1.236752 0.88203412)
(9.7799997 1.2525311 0.88801807)
(9.7799997 1.2525311 0.7619819)
(9.7799997 1.7854511 0.2248223)
(9.7799997 1.90051 0.20843761)
(9.7799997 1.404549 0.72482228)
(9.7799997 1.2854511 0.72482228)
(9.7799997 1.5354511 0.47482231)
(9.7799997 1.654549 0.47482231)
(9.7799997 1.65051 0.45843759)
(9.7799997 1.154549 0.97482228)
(9.7799997 1.15051 0.95843762)
(9.7799997 1.0354511 0.97482228)
(9.7799997 1.736752 0.26796591)
(9.7799997 1.736752 0.38203409)
(9.7799997 1.486752 0.51796591)
(9.7799997 1.47 0.63)
(9.7799997 1.486752 0.63203412)
(9.7799997 1.236752 0.76796591)
(9.7799997 0.98675209 1.017966)
(9.7799997 1.78949 0.20843761)
(9.7799997 1.53949 0.45843759)
(9.7799997 1.40051 0.70843762)
(9.7799997 1.28949 0.70843762)
(9.7799997 1.03949 0.95843762)
(9.7799997 1.72 0.27000001)
(9.7799997 1.72 0.38)
(9.7799997 1.47 0.51999998)
(9.7799997 0.97000003 1.02)
(9.7799997 1.22 0.88)
(9.7799997 1.22 0.76999998)
(9.7799997 1.78949 0.1915624)
(9.7799997 1.90051 0.1915624)
(9.7799997 1.40051 0.69156241)
(9.7799997 1.404549 0.67517769)
(9.7799997 1.28949 0.69156241)
(9.7799997 1.65051 0.44156241)
(9.7799997 1.654549 0.42517769)
(9.7799997 1.53949 0.44156241)
(9.7799997 1.03949 0.94156241)
(9.7799997 1.15051 0.94156241)
(9.7799997 1.703248 0.38203409)
(9.7799997 1.703248 0.26796591)
(9.7799997 1.203248 0.76796591)
(9.7799997 1.203248 0.88203412)
(9.7799997 1.453248 0.51796591)
(9.7799997 1.453248 0.63203412)
(9.7799997 1.7854511 0.17517769)
(9.7799997 1.904549 0.17517769)
(9.7799997 1.9123909 0.16023549)
(9.7799997 1.5354511 0.42517769)
(9.7799997 1.0354511 0.92517769)
(9.7799997 1.154549 0.92517769)
(9.7799997 1.2854511 0.67517769)
(9.7799997 1.673581 0.3976042)
(9.7799997 1.687469 0.3880181)
(9.7799997 1.687469 0.2619819)
(9.7799997 1.187469 0.7619819)
(9.7799997 1.187469 0.88801807)
(9.7799997 1.437469 0.63801807)
(9.7799997 1.437469 0.5119819)
(9.7799997 1.777609 0.16023549)
(9.7799997 1.923581 0.1476042)
(9.7799997 1.6623909 0.41023549)
(9.7799997 1.527609 0.41023549)
(9.7799997 1.027609 0.91023552)
(9.7799997 1.1623909 0.91023552)
(9.7799997 1.4123909 0.66023552)
(9.7799997 1.423581 0.64760423)
(9.7799997 1.277609 0.66023552)
(9.7799997 1.673581 0.25239581)
(9.7799997 1.423581 0.50239581)
(9.7799997 1.173581 0.75239581)
(9.7799997 1.173581 0.89760423)
(9.7799997 1.7664191 0.1476042)
(9.7799997 1.5164191 0.3976042)
(9.7799997 1.0164191 0.89760423)
(9.7799997 1.2664191 0.64760423)
(9.7799997 1.7525311 0.1380181)
(9.7799997 1.937469 0.1380181)
(9.7799997 1.736752 0.13203409)
(9.7799997 1.953248 0.13203409)
(9.7799997 1.72 0.13)
(9.7799997 0.93746942 1.011982)
(9.7799997 0.92358142 1.002396)
(9.7799997 1.6623909 0.2397645)
(9.7799997 1.527609 0.2397645)
(9.7799997 1.5164191 0.25239581)
(9.7799997 1.4123909 0.48976451)
(9.7799997 1.277609 0.48976451)
(9.7799997 1.2664191 0.50239581)
(9.7799997 1.1623909 0.73976451)
(9.7799997 1.027609 0.73976451)
(9.7799997 1.0164191 0.75239581)
(9.7799997 0.77760887 0.98976451)
(9.7799997 0.76641858 1.002396)
(9.7799997 0.91239113 0.98976451)
(9.7799997 1.5025311 0.3880181)
(9.7799997 1.5025311 0.2619819)
(9.7799997 1.2525311 0.5119819)
(9.7799997 1.2525311 0.63801807)
(9.7799997 1.0025311 0.88801807)
(9.7799997 1.0025311 0.7619819)
(9.7799997 0.75253057 1.011982)
(9.7799997 1.654549 0.2248223)
(9.7799997 1.65051 0.20843761)
(9.7799997 1.5354511 0.2248223)
(9.7799997 1.2854511 0.47482231)
(9.7799997 1.404549 0.47482231)
(9.7799997 1.0354511 0.72482228)
(9.7799997 1.154549 0.72482228)
(9.7799997 0.78545111 0.97482228)
(9.7799997 0.90454888 0.97482228)
(9.7799997 1.236752 0.51796591)
(9.7799997 1.236752 0.63203412)
(9.7799997 1.486752 0.38203409)
(9.7799997 1.486752 0.26796591)
(9.7799997 0.98675209 0.76796591)
(9.7799997 0.98675209 0.88203412)
(9.7799997 0.9532479 1.017966)
(9.7799997 0.73675209 1.017966)
(9.7799997 1.40051 0.45843759)
(9.7799997 1.28949 0.45843759)
(9.7799997 1.53949 0.20843761)
(9.7799997 1.03949 0.70843762)
(9.7799997 1.15051 0.70843762)
(9.7799997 1.15051 0.69156241)
(9.7799997 0.78948963 0.95843762)
(9.7799997 0.90051037 0.95843762)
(9.7799997 1.22 0.51999998)
(9.7799997 1.22 0.63)
(9.7799997 1.47 0.27000001)
(9.7799997 1.47 0.38)
(9.7799997 0.97000003 0.76999998)
(9.7799997 0.97000003 0.88)
(9.7799997 0.72000003 1.02)
(9.7799997 1.65051 0.1915624)
(9.7799997 1.53949 0.1915624)
(9.7799997 1.40051 0.44156241)
(9.7799997 1.404549 0.42517769)
(9.7799997 1.28949 0.44156241)
(9.7799997 1.154549 0.67517769)
(9.7799997 1.03949 0.69156241)
(9.7799997 0.78948963 0.94156241)
(9.7799997 0.90051037 0.94156241)
(9.7799997 0.90454888 0.92517769)
(9.7799997 1.203248 0.63203412)
(9.7799997 1.203248 0.51796591)
(9.7799997 1.453248 0.38203409)
(9.7799997 1.453248 0.26796591)
(9.7799997 0.9532479 0.76796591)
(9.7799997 0.9532479 0.88203412)
(9.7799997 1.2854511 0.42517769)
(9.7799997 1.654549 0.17517769)
(9.7799997 1.6623909 0.16023549)
(9.7799997 1.5354511 0.17517769)
(9.7799997 1.0354511 0.67517769)
(9.7799997 0.78545111 0.92517769)
(9.7799997 0.91239113 0.91023552)
(9.7799997 1.423581 0.3976042)
(9.7799997 1.437469 0.3880181)
(9.7799997 1.437469 0.2619819)
(9.7799997 0.93746942 0.7619819)
(9.7799997 0.92358142 0.89760423)
(9.7799997 0.93746942 0.88801807)
(9.7799997 1.187469 0.63801807)
(9.7799997 1.187469 0.5119819)
(9.7799997 1.673581 0.1476042)
(9.7799997 1.527609 0.16023549)
(9.7799997 1.4123909 0.41023549)
(9.7799997 1.277609 0.41023549)
(9.7799997 1.027609 0.66023552)
(9.7799997 1.1623909 0.66023552)
(9.7799997 0.77760887 0.91023552)
(9.7799997 1.173581 0.64760423)
(9.7799997 1.173581 0.50239581)
(9.7799997 1.423581 0.25239581)
(9.7799997 0.92358142 0.75239581)
(9.7799997 1.2664191 0.3976042)
(9.7799997 1.5164191 0.1476042)
(9.7799997 1.0164191 0.64760423)
(9.7799997 0.76641858 0.89760423)
(9.7799997 1.687469 0.1380181)
(9.7799997 1.5025311 0.1380181)
(9.7799997 1.486752 0.13203409)
(9.7799997 1.703248 0.13203409)
(9.7799997 1.47 0.13)
(9.7799997 1.1623909 0.48976451)
(9.7799997 1.027609 0.48976451)
(9.7799997 1.0164191 0.50239581)
(9.7799997 1.4123909 0.2397645)
(9.7799997 1.277609 0.2397645)
(9.7799997 1.2664191 0.25239581)
(9.7799997 0.52760887 0.98976451)
(9.7799997 0.51641858 1.002396)
(9.7799997 0.67358142 1.002396)
(9.7799997 0.66239113 0.98976451)
(9.7799997 0.77760887 0.73976451)
(9.7799997 0.76641858 0.75239581)
(9.7799997 0.91239113 0.73976451)
(9.7799997 1.2525311 0.2619819)
(9.7799997 1.2525311 0.3880181)
(9.7799997 0.50253057 1.011982)
(9.7799997 0.68746942 1.011982)
(9.7799997 0.75253057 0.88801807)
(9.7799997 0.75253057 0.7619819)
(9.7799997 1.0025311 0.63801807)
(9.7799997 1.0025311 0.5119819)
(9.7799997 1.404549 0.2248223)
(9.7799997 1.2854511 0.2248223)
(9.7799997 1.0354511 0.47482231)
(9.7799997 1.154549 0.47482231)
(9.7799997 0.53545111 0.97482228)
(9.7799997 0.65454888 0.97482228)
(9.7799997 0.65051037 0.95843762)
(9.7799997 0.78545111 0.72482228)
(9.7799997 0.90454888 0.72482228)
(9.7799997 1.236752 0.26796591)
(9.7799997 1.236752 0.38203409)
(9.7799997 0.98675209 0.51796591)
(9.7799997 0.98675209 0.63203412)
(9.7799997 0.48675209 1.017966)
(9.7799997 0.7032479 1.017966)
(9.7799997 0.73675209 0.76796591)
(9.7799997 0.73675209 0.88203412)
(9.7799997 1.40051 0.20843761)
(9.7799997 1.28949 0.20843761)
(9.7799997 1.15051 0.45843759)
(9.7799997 1.03949 0.45843759)
(9.7799997 0.53948963 0.95843762)
(9.7799997 0.78948963 0.70843762)
(9.7799997 0.90051037 0.70843762)
(9.7799997 0.90051037 0.69156241)
(9.7799997 1.22 0.27000001)
(9.7799997 1.22 0.38)
(9.7799997 0.47 1.02)
(9.7799997 0.72000003 0.76999998)
(9.7799997 0.7032479 0.88203412)
(9.7799997 0.72000003 0.88)
(9.7799997 0.97000003 0.51999998)
(9.7799997 0.97000003 0.63)
(9.7799997 1.40051 0.1915624)
(9.7799997 1.28949 0.1915624)
(9.7799997 0.53948963 0.94156241)
(9.7799997 0.65051037 0.94156241)
(9.7799997 0.78948963 0.69156241)
(9.7799997 1.03949 0.44156241)
(9.7799997 1.15051 0.44156241)
(9.7799997 1.203248 0.26796591)
(9.7799997 1.203248 0.38203409)
(9.7799997 0.7032479 0.76796591)
(9.7799997 0.9532479 0.51796591)
(9.7799997 0.9532479 0.63203412)
(9.7799997 1.404549 0.17517769)
(9.7799997 1.2854511 0.17517769)
(9.7799997 0.53545111 0.92517769)
(9.7799997 0.65454888 0.92517769)
(9.7799997 0.66239113 0.91023552)
(9.7799997 0.90454888 0.67517769)
(9.7799997 0.91239113 0.66023552)
(9.7799997 0.78545111 0.67517769)
(9.7799997 1.0354511 0.42517769)
(9.7799997 1.154549 0.42517769)
(9.7799997 1.187469 0.2619819)
(9.7799997 1.187469 0.3880181)
(9.7799997 0.68746942 0.7619819)
(9.7799997 0.67358142 0.89760423)
(9.7799997 0.68746942 0.88801807)
(9.7799997 0.93746942 0.63801807)
(9.7799997 0.93746942 0.5119819)
(9.7799997 1.4123909 0.16023549)
(9.7799997 1.423581 0.1476042)