/*--------------------------------*- C++ -*----------------------------------*\
  =========                 |
  \\      /  F ield         | OpenFOAM: The Open Source CFD Toolbox
   \\    /   O peration     | Website:  https://openfoam.org
    \\  /    A nd           | Version:  dev
     \\/     M anipulation  |
\*---------------------------------------------------------------------------*/
FoamFile
{
    format      ascii;
    class       extendedFeatureEdgeMesh;
    location    "constant/extendedFeatureEdgeMesh";
    object      inlet.extendedFeatureEdgeMesh;
}
// * * * * * * * * * * * * * * * * * * * * * * * * * * * * * * * * * * * * * //

// points

70
(
(-0.40000001 1.601743 0.82125682)
(-0.40000001 1.608023 0.8185727)
(-0.40000001 1.614037 0.81533653)
(-0.40000001 1.58859 0.82488692)
(-0.40000001 1.595248 0.82336718)
(-0.40000001 1.5359631 0.81533653)
(-0.40000001 1.541977 0.8185727)
(-0.40000001 1.548257 0.82125682)
(-0.40000001 1.5681781 0.82580358)
(-0.40000001 1.575 0.82611001)
(-0.40000001 1.56141 0.82488692)
(-0.40000001 1.554752 0.82336718)
(-0.40000001 1.530264 0.81157428)
(-0.40000001 1.5199879 0.80259681)
(-0.40000001 1.524924 0.8073163)
(-0.40000001 1.511481 0.79192883)
(-0.40000001 1.5154949 0.79745382)
(-0.40000001 1.507978 0.78606611)
(-0.40000001 1.505015 0.77991313)
(-0.40000001 1.502615 0.77351928)
(-0.40000001 1.500798 0.76693612)
(-0.40000001 1.499579 0.76021647)
(-0.40000001 1.4989671 0.75341469)
(-0.40000001 1.4989671 0.74658531)
(-0.40000001 1.499579 0.73978353)
(-0.40000001 1.500798 0.73306388)
(-0.40000001 1.502615 0.72648072)
(-0.40000001 1.505015 0.72008687)
(-0.40000001 1.507978 0.71393389)
(-0.40000001 1.511481 0.70807117)
(-0.40000001 1.5154949 0.70254618)
(-0.40000001 1.5199879 0.69740319)
(-0.40000001 1.524924 0.6926837)
(-0.40000001 1.530264 0.68842572)
(-0.40000001 1.5359631 0.68466347)
(-0.40000001 1.541977 0.6814273)
(-0.40000001 1.548257 0.67874318)
(-0.40000001 1.554752 0.67663282)
(-0.40000001 1.56141 0.67511308)
(-0.40000001 1.5681781 0.67419642)
(-0.40000001 1.575 0.67388999)
(-0.40000001 1.581822 0.67419642)
(-0.40000001 1.58859 0.67511308)
(-0.40000001 1.595248 0.67663282)
(-0.40000001 1.601743 0.67874318)
(-0.40000001 1.608023 0.6814273)
(-0.40000001 1.614037 0.68466347)
(-0.40000001 1.619736 0.68842572)
(-0.40000001 1.6250761 0.6926837)
(-0.40000001 1.630012 0.69740319)
(-0.40000001 1.634505 0.70254618)
(-0.40000001 1.638519 0.70807117)
(-0.40000001 1.642022 0.71393389)
(-0.40000001 1.644985 0.72008687)
(-0.40000001 1.647385 0.72648072)
(-0.40000001 1.649202 0.73306388)
(-0.40000001 1.650421 0.73978353)
(-0.40000001 1.651033 0.74658531)
(-0.40000001 1.651033 0.75341469)
(-0.40000001 1.650421 0.76021647)
(-0.40000001 1.649202 0.76693612)
(-0.40000001 1.647385 0.77351928)
(-0.40000001 1.644985 0.77991313)
(-0.40000001 1.642022 0.78606611)
(-0.40000001 1.638519 0.79192883)
(-0.40000001 1.634505 0.79745382)
(-0.40000001 1.630012 0.80259681)
(-0.40000001 1.6250761 0.8073163)
(-0.40000001 1.619736 0.81157428)
(-0.40000001 1.581822 0.82580358)
)

// edges

70
(
(0 1)
(1 2)
(3 4)
(4 0)
(5 6)
(6 7)
(8 9)
(10 8)
(11 10)
(7 11)
(12 5)
(13 14)
(14 12)
(15 16)
(16 13)
(17 15)
(18 17)
(19 18)
(20 19)
(21 20)
(22 21)
(23 22)
(24 23)
(25 24)
(26 25)
(27 26)
(28 27)
(29 28)
(30 29)
(31 30)
(32 31)
(33 32)
(34 33)
(35 34)
(36 35)
(37 36)
(38 37)
(39 38)
(40 39)
(41 40)
(42 41)
(43 42)
(44 43)
(45 44)
(46 45)
(47 46)
(48 47)
(49 48)
(50 49)
(51 50)
(52 51)
(53 52)
(54 53)
(55 54)
(56 55)
(57 56)
(58 57)
(59 58)
(60 59)
(61 60)
(62 61)
(63 62)
(64 63)
(65 64)
(66 65)
(67 66)
(68 67)
(2 68)
(69 3)
(9 69)
)

// concaveStart mixedStart nonFeatureStart
0 0 0
// internalStart flatStart openStart multipleStart
0 0 0 70
// normals
65{(-1 0 0)}
// normal volume types

65
(
0
0
0
0
0
0
0
0
0
0
0
0
0
0
0
0
0
0
0
0
0
0
0
0
0
0
0
0
0
0
0
0
0
0
0
0
0
0
0
0
0
0
0
0
0
0
0
0
0
0
0
0
0
0
0
0
0
0
0
0
0
0
0
0
0
)

// normalDirections

70
(
1(1)
1(1)
1(1)
1(1)
1(1)
1(1)
1(1)
1(1)
1(1)
1(1)
1(1)
1(1)
1(1)
1(1)
1(1)
1(1)
1(1)
1(1)
1(1)
1(1)
1(1)
1(1)
1(1)
1(1)
1(1)
1(1)
1(1)
1(1)
1(1)
1(1)
1(1)
1(1)
1(1)
1(1)
1(1)
1(1)
1(1)
1(1)
1(1)
1(1)
1(1)
1(1)
1(1)
1(1)
1(1)
1(1)
1(1)
1(1)
1(1)
1(1)
1(1)
1(1)
1(1)
1(1)
1(1)
1(1)
1(1)
1(1)
1(1)
1(1)
1(1)
1(1)
1(1)
1(1)
1(1)
1(1)
1(1)
1(1)
1(1)
1(1)
)

// edgeNormals

70
(
1(0)
1(0)
1(1)
1(1)
1(2)
1(2)
1(3)
1(4)
1(5)
1(6)
1(7)
1(8)
1(8)
1(9)
1(9)
1(10)
1(11)
1(12)
1(13)
1(14)
1(15)
1(16)
1(17)
1(18)
1(19)
1(20)
1(21)
1(22)
1(23)
1(24)
1(25)
1(26)
1(27)
1(28)
1(29)
1(30)
1(31)
1(32)
1(33)
1(34)
1(35)
1(36)
1(37)
1(38)
1(39)
1(40)
1(41)
1(42)
1(43)
1(44)
1(45)
1(46)
1(47)
1(48)
1(49)
1(50)
1(51)
1(52)
1(53)
1(54)
1(55)
1(56)
1(57)
1(58)
1(59)
1(60)
1(61)
1(62)
1(63)
1(64)
)

// featurePointNormals
0()
// featurePointEdges
0()
// regionEdges

70
(
0
1
2
3
4
5
6
7
8
9
10
11
12
13
14
15
16
17
18
19
20
21
22
23
24
25
26
27
28
29
30
31
32
33
34
35
36
37
38
39
40
41
42
43
44
45
46
47
48
49
50
51
52
53
54
55
56
57
58
59
60
61
62
63
64
65
66
67
68
69
)



// ************************************************************************* //
