/*--------------------------------*- C++ -*----------------------------------*\
  =========                 |
  \\      /  F ield         | OpenFOAM: The Open Source CFD Toolbox
   \\    /   O peration     | Website:  https://openfoam.org
    \\  /    A nd           | Version:  dev
     \\/     M anipulation  |
\*---------------------------------------------------------------------------*/
FoamFile
{
    format      ascii;
    class       extendedFeatureEdgeMesh;
    location    "constant/extendedFeatureEdgeMesh";
    object      outlet_princi.extendedFeatureEdgeMesh;
}
// * * * * * * * * * * * * * * * * * * * * * * * * * * * * * * * * * * * * * //

// points

70
(
(12.9 1.650322 0.6220156)
(12.9 1.643564 0.62847757)
(12.9 1.636253 0.63430768)
(12.9 1.584341 0.65379047)
(12.9 1.575 0.65420997)
(12.9 1.565659 0.65379047)
(12.9 1.556393 0.65253532)
(12.9 1.547276 0.65045458)
(12.9 1.538383 0.64756501)
(12.9 1.529785 0.64389002)
(12.9 1.521551 0.63945889)
(12.9 1.513747 0.63430768)
(12.9 1.506436 0.62847757)
(12.9 1.499678 0.6220156)
(12.9 1.493525 0.6149739)
(12.9 1.488029 0.607409)
(12.9 1.483233 0.59938192)
(12.9 1.479176 0.59095711)
(12.9 1.47589 0.58220267)
(12.9 1.473403 0.5731889)
(12.9 1.471733 0.56398839)
(12.9 1.4708951 0.5546754)
(12.9 1.4708951 0.54532462)
(12.9 1.471733 0.53601158)
(12.9 1.473403 0.52681112)
(12.9 1.47589 0.51779729)
(12.9 1.479176 0.50904292)
(12.9 1.483233 0.5006181)
(12.9 1.488029 0.49259099)
(12.9 1.493525 0.48502609)
(12.9 1.499678 0.4779844)
(12.9 1.506436 0.47152239)
(12.9 1.513747 0.46569231)
(12.9 1.521551 0.4605411)
(12.9 1.529785 0.45611)
(12.9 1.538383 0.45243499)
(12.9 1.547276 0.44954541)
(12.9 1.556393 0.4474647)
(12.9 1.565659 0.44620949)
(12.9 1.575 0.44578999)
(12.9 1.584341 0.44620949)
(12.9 1.5936069 0.4474647)
(12.9 1.602724 0.44954541)
(12.9 1.611617 0.45243499)
(12.9 1.6202151 0.45611)
(12.9 1.628449 0.4605411)
(12.9 1.636253 0.46569231)
(12.9 1.643564 0.47152239)
(12.9 1.650322 0.4779844)
(12.9 1.6564749 0.48502609)
(12.9 1.661971 0.49259099)
(12.9 1.666767 0.5006181)
(12.9 1.6708241 0.50904292)
(12.9 1.6741101 0.51779729)
(12.9 1.676597 0.52681112)
(12.9 1.678267 0.53601158)
(12.9 1.679105 0.54532462)
(12.9 1.679105 0.5546754)
(12.9 1.678267 0.56398839)
(12.9 1.676597 0.5731889)
(12.9 1.6741101 0.58220267)
(12.9 1.6708241 0.59095711)
(12.9 1.666767 0.59938192)
(12.9 1.661971 0.607409)
(12.9 1.6564749 0.6149739)
(12.9 1.628449 0.63945889)
(12.9 1.6202151 0.64389002)
(12.9 1.611617 0.64756501)
(12.9 1.602724 0.65045458)
(12.9 1.5936069 0.65253532)
)

// edges

70
(
(0 1)
(1 2)
(3 4)
(4 5)
(5 6)
(6 7)
(7 8)
(8 9)
(9 10)
(10 11)
(11 12)
(12 13)
(13 14)
(14 15)
(15 16)
(16 17)
(17 18)
(18 19)
(19 20)
(20 21)
(21 22)
(22 23)
(23 24)
(24 25)
(25 26)
(26 27)
(27 28)
(28 29)
(29 30)
(30 31)
(31 32)
(32 33)
(33 34)
(34 35)
(35 36)
(36 37)
(37 38)
(38 39)
(39 40)
(40 41)
(41 42)
(42 43)
(43 44)
(44 45)
(45 46)
(46 47)
(47 48)
(48 49)
(49 50)
(50 51)
(51 52)
(52 53)
(53 54)
(54 55)
(55 56)
(56 57)
(57 58)
(58 59)
(59 60)
(60 61)
(61 62)
(62 63)
(63 64)
(64 0)
(2 65)
(65 66)
(66 67)
(67 68)
(68 69)
(69 3)
)

// concaveStart mixedStart nonFeatureStart
0 0 0
// internalStart flatStart openStart multipleStart
0 0 0 70
// normals
66{(1 0 0)}
// normal volume types

66
(
0
0
0
0
0
0
0
0
0
0
0
0
0
0
0
0
0
0
0
0
0
0
0
0
0
0
0
0
0
0
0
0
0
0
0
0
0
0
0
0
0
0
0
0
0
0
0
0
0
0
0
0
0
0
0
0
0
0
0
0
0
0
0
0
0
0
)

// normalDirections

70
(
1(1)
1(1)
1(1)
1(1)
1(1)
1(1)
1(1)
1(1)
1(1)
1(1)
1(1)
1(1)
1(1)
1(1)
1(1)
1(1)
1(1)
1(1)
1(1)
1(1)
1(1)
1(1)
1(1)
1(1)
1(1)
1(1)
1(1)
1(1)
1(1)
1(1)
1(1)
1(1)
1(1)
1(1)
1(1)
1(1)
1(1)
1(1)
1(1)
1(1)
1(1)
1(1)
1(1)
1(1)
1(1)
1(1)
1(1)
1(1)
1(1)
1(1)
1(1)
1(1)
1(1)
1(1)
1(1)
1(1)
1(1)
1(1)
1(1)
1(1)
1(1)
1(1)
1(1)
1(1)
1(1)
1(1)
1(1)
1(1)
1(1)
1(1)
)

// edgeNormals

70
(
1(0)
1(0)
1(1)
1(1)
1(2)
1(3)
1(4)
1(5)
1(6)
1(7)
1(8)
1(8)
1(9)
1(9)
1(10)
1(11)
1(12)
1(13)
1(14)
1(15)
1(16)
1(17)
1(18)
1(19)
1(20)
1(21)
1(22)
1(23)
1(24)
1(25)
1(26)
1(27)
1(28)
1(29)
1(30)
1(31)
1(32)
1(33)
1(34)
1(35)
1(36)
1(37)
1(38)
1(39)
1(40)
1(41)
1(42)
1(43)
1(44)
1(45)
1(46)
1(47)
1(48)
1(49)
1(50)
1(51)
1(52)
1(53)
1(54)
1(55)
1(56)
1(57)
1(58)
1(59)
1(60)
1(61)
1(62)
1(63)
1(64)
1(65)
)

// featurePointNormals
0()
// featurePointEdges
0()
// regionEdges

70
(
0
1
2
3
4
5
6
7
8
9
10
11
12
13
14
15
16
17
18
19
20
21
22
23
24
25
26
27
28
29
30
31
32
33
34
35
36
37
38
39
40
41
42
43
44
45
46
47
48
49
50
51
52
53
54
55
56
57
58
59
60
61
62
63
64
65
66
67
68
69
)



// ************************************************************************* //
