/*--------------------------------*- C++ -*----------------------------------*\
  =========                 |
  \\      /  F ield         | OpenFOAM: The Open Source CFD Toolbox
   \\    /   O peration     | Website:  https://openfoam.org
    \\  /    A nd           | Version:  dev
     \\/     M anipulation  |
\*---------------------------------------------------------------------------*/
FoamFile
{
    format      ascii;
    class       extendedFeatureEdgeMesh;
    location    "constant/extendedFeatureEdgeMesh";
    object      pipe3.extendedFeatureEdgeMesh;
}
// * * * * * * * * * * * * * * * * * * * * * * * * * * * * * * * * * * * * * //

// points

140
(
(12.9 1.565659 0.65379047)
(12.9 1.575 0.65420997)
(12.73 1.575 0.65420997)
(12.73 1.565659 0.65379047)
(12.9 1.556393 0.65253532)
(12.73 1.556393 0.65253532)
(12.9 1.547276 0.65045458)
(12.73 1.547276 0.65045458)
(12.9 1.538383 0.64756501)
(12.73 1.538383 0.64756501)
(12.9 1.529785 0.64389002)
(12.73 1.529785 0.64389002)
(12.9 1.521551 0.63945889)
(12.73 1.521551 0.63945889)
(12.9 1.513747 0.63430768)
(12.73 1.513747 0.63430768)
(12.9 1.506436 0.62847757)
(12.73 1.506436 0.62847757)
(12.73 1.499678 0.6220156)
(12.9 1.499678 0.6220156)
(12.73 1.493525 0.6149739)
(12.9 1.493525 0.6149739)
(12.73 1.488029 0.607409)
(12.9 1.488029 0.607409)
(12.73 1.483233 0.59938192)
(12.73 1.479176 0.59095711)
(12.9 1.483233 0.59938192)
(12.9 1.479176 0.59095711)
(12.9 1.47589 0.58220267)
(12.73 1.47589 0.58220267)
(12.9 1.473403 0.5731889)
(12.73 1.473403 0.5731889)
(12.9 1.471733 0.56398839)
(12.73 1.471733 0.56398839)
(12.9 1.4708951 0.5546754)
(12.73 1.4708951 0.5546754)
(12.9 1.4708951 0.54532462)
(12.73 1.4708951 0.54532462)
(12.9 1.471733 0.53601158)
(12.73 1.471733 0.53601158)
(12.9 1.473403 0.52681112)
(12.73 1.473403 0.52681112)
(12.9 1.47589 0.51779729)
(12.73 1.47589 0.51779729)
(12.9 1.479176 0.50904292)
(12.73 1.479176 0.50904292)
(12.9 1.483233 0.5006181)
(12.73 1.483233 0.5006181)
(12.9 1.488029 0.49259099)
(12.73 1.488029 0.49259099)
(12.73 1.493525 0.48502609)
(12.9 1.493525 0.48502609)
(12.73 1.499678 0.4779844)
(12.9 1.499678 0.4779844)
(12.9 1.506436 0.47152239)
(12.73 1.506436 0.47152239)
(12.9 1.513747 0.46569231)
(12.73 1.513747 0.46569231)
(12.73 1.521551 0.4605411)
(12.9 1.521551 0.4605411)
(12.73 1.529785 0.45611)
(12.73 1.538383 0.45243499)
(12.9 1.529785 0.45611)
(12.9 1.538383 0.45243499)
(12.73 1.547276 0.44954541)
(12.73 1.556393 0.4474647)
(12.9 1.547276 0.44954541)
(12.9 1.556393 0.4474647)
(12.73 1.565659 0.44620949)
(12.9 1.565659 0.44620949)
(12.73 1.575 0.44578999)
(12.9 1.575 0.44578999)
(12.73 1.584341 0.44620949)
(12.9 1.584341 0.44620949)
(12.73 1.5936069 0.4474647)
(12.73 1.602724 0.44954541)
(12.9 1.5936069 0.4474647)
(12.9 1.602724 0.44954541)
(12.73 1.611617 0.45243499)
(12.9 1.611617 0.45243499)
(12.9 1.6202151 0.45611)
(12.73 1.6202151 0.45611)
(12.9 1.628449 0.4605411)
(12.73 1.628449 0.4605411)
(12.73 1.636253 0.46569231)
(12.9 1.636253 0.46569231)
(12.9 1.643564 0.47152239)
(12.73 1.643564 0.47152239)
(12.73 1.650322 0.4779844)
(12.73 1.6564749 0.48502609)
(12.9 1.650322 0.4779844)
(12.9 1.6564749 0.48502609)
(12.73 1.661971 0.49259099)
(12.73 1.666767 0.5006181)
(12.9 1.661971 0.49259099)
(12.9 1.666767 0.5006181)
(12.73 1.6708241 0.50904292)
(12.73 1.6741101 0.51779729)
(12.9 1.6708241 0.50904292)
(12.9 1.6741101 0.51779729)
(12.73 1.676597 0.52681112)
(12.9 1.676597 0.52681112)
(12.73 1.678267 0.53601158)
(12.73 1.679105 0.54532462)
(12.9 1.678267 0.53601158)
(12.9 1.679105 0.54532462)
(12.73 1.679105 0.5546754)
(12.9 1.679105 0.5546754)
(12.73 1.678267 0.56398839)
(12.9 1.678267 0.56398839)
(12.73 1.676597 0.5731889)
(12.73 1.6741101 0.58220267)
(12.9 1.676597 0.5731889)
(12.9 1.6741101 0.58220267)
(12.73 1.6708241 0.59095711)
(12.73 1.666767 0.59938192)
(12.9 1.6708241 0.59095711)
(12.9 1.666767 0.59938192)
(12.73 1.661971 0.607409)
(12.9 1.661971 0.607409)
(12.73 1.6564749 0.6149739)
(12.9 1.6564749 0.6149739)
(12.73 1.650322 0.6220156)
(12.73 1.643564 0.62847757)
(12.9 1.650322 0.6220156)
(12.9 1.643564 0.62847757)
(12.73 1.636253 0.63430768)
(12.9 1.636253 0.63430768)
(12.73 1.628449 0.63945889)
(12.73 1.6202151 0.64389002)
(12.9 1.628449 0.63945889)
(12.9 1.6202151 0.64389002)
(12.73 1.611617 0.64756501)
(12.9 1.611617 0.64756501)
(12.9 1.602724 0.65045458)
(12.73 1.602724 0.65045458)
(12.9 1.5936069 0.65253532)
(12.73 1.5936069 0.65253532)
(12.9 1.584341 0.65379047)
(12.73 1.584341 0.65379047)
)

// edges

140
(
(0 1)
(2 3)
(4 0)
(3 5)
(6 4)
(5 7)
(8 6)
(7 9)
(10 8)
(9 11)
(12 10)
(11 13)
(14 12)
(13 15)
(16 14)
(15 17)
(17 18)
(19 16)
(18 20)
(21 19)
(20 22)
(23 21)
(22 24)
(24 25)
(26 23)
(27 26)
(28 27)
(25 29)
(30 28)
(29 31)
(32 30)
(31 33)
(34 32)
(33 35)
(36 34)
(35 37)
(38 36)
(37 39)
(40 38)
(39 41)
(42 40)
(41 43)
(44 42)
(43 45)
(46 44)
(45 47)
(48 46)
(47 49)
(49 50)
(51 48)
(50 52)
(53 51)
(54 53)
(52 55)
(56 54)
(55 57)
(57 58)
(59 56)
(58 60)
(60 61)
(62 59)
(63 62)
(61 64)
(64 65)
(66 63)
(67 66)
(65 68)
(69 67)
(68 70)
(71 69)
(70 72)
(73 71)
(72 74)
(74 75)
(76 73)
(77 76)
(75 78)
(79 77)
(80 79)
(78 81)
(82 80)
(81 83)
(83 84)
(85 82)
(86 85)
(84 87)
(87 88)
(88 89)
(90 86)
(91 90)
(89 92)
(92 93)
(94 91)
(95 94)
(93 96)
(96 97)
(98 95)
(99 98)
(97 100)
(101 99)
(100 102)
(102 103)
(104 101)
(105 104)
(103 106)
(107 105)
(106 108)
(109 107)
(108 110)
(110 111)
(112 109)
(113 112)
(111 114)
(114 115)
(116 113)
(117 116)
(115 118)
(119 117)
(118 120)
(121 119)
(120 122)
(122 123)
(124 121)
(125 124)
(123 126)
(127 125)
(126 128)
(128 129)
(130 127)
(131 130)
(129 132)
(133 131)
(134 133)
(132 135)
(136 134)
(135 137)
(138 136)
(137 139)
(1 138)
(139 2)
)

// concaveStart mixedStart nonFeatureStart
0 0 0
// internalStart flatStart openStart multipleStart
0 0 0 140
// normals

140
(
(0 -0.044864044 0.9989931)
(0 -0.044864044 0.9989931)
(0 -0.13423191 0.99094995)
(0 -0.13423191 0.99094995)
(0 -0.22250479 0.9749316)
(0 -0.22250479 0.9749316)
(0 -0.30902265 0.95105468)
(0 -0.30902265 0.95105468)
(0 -0.39302822 0.91952641)
(0 -0.39302822 0.91952641)
(0 -0.47388618 0.88058611)
(0 -0.47388618 0.88058611)
(0 -0.55088306 0.83458245)
(0 -0.55088306 0.83458245)
(0 -0.6234762 0.78184233)
(0 -0.6234762 0.78184233)
(0 -0.69110135 0.72275786)
(0 -0.69110135 0.72275786)
(0 -0.75302665 0.65799002)
(0 -0.75302665 0.65799002)
(0 -0.80902707 0.58777138)
(0 -0.80902707 0.58777138)
(0 -0.85844535 0.51290504)
(0 -0.90097924 0.43386219)
(0 -0.85844535 0.51290504)
(0 -0.90097924 0.43386219)
(0 -0.93622042 0.35141332)
(0 -0.93622042 0.35141332)
(0 -0.96397876 0.26597925)
(0 -0.96397876 0.26597925)
(0 -0.9839229 0.17859374)
(0 -0.9839229 0.17859374)
(0 -0.99597679 0.089611521)
(0 -0.99597679 0.089611521)
(0 -1 0)
(0 -1 0)
(0 -0.99597685 -0.089610953)
(-0 -0.99597685 -0.089610953)
(0 -0.9839227 -0.17859486)
(-0 -0.9839227 -0.17859486)
(0 -0.96397921 -0.26597761)
(-0 -0.96397921 -0.26597761)
(0 -0.93621963 -0.35141542)
(-0 -0.93621963 -0.35141542)
(0 -0.90097924 -0.43386219)
(-0 -0.90097924 -0.43386219)
(0 -0.85844619 -0.51290363)
(-0 -0.85844619 -0.51290363)
(-0 -0.80902707 -0.58777138)
(-0 -0.80902707 -0.58777138)
(-0 -0.75302665 -0.65799002)
(-0 -0.75302665 -0.65799002)
(0 -0.69110301 -0.72275627)
(-0 -0.69110301 -0.72275627)
(0 -0.62347425 -0.78184388)
(-0 -0.62347425 -0.78184388)
(-0 -0.55088306 -0.83458245)
(0 -0.55088306 -0.83458245)
(-0 -0.47388371 -0.88058744)
(-0 -0.39303091 -0.91952526)
(0 -0.47388371 -0.88058744)
(-0 -0.39303091 -0.91952526)
(-0 -0.30902265 -0.95105468)
(-0 -0.22250176 -0.97493229)
(0 -0.30902265 -0.95105468)
(-0 -0.22250176 -0.97493229)
(-0 -0.13423817 -0.9909491)
(0 -0.13423817 -0.9909491)
(-0 -0.044864044 -0.9989931)
(0 -0.044864044 -0.9989931)
(0 0.044864044 -0.9989931)
(0 0.044864044 -0.9989931)
(0 0.13423986 -0.99094887)
(0 0.22250176 -0.97493229)
(0 0.13423986 -0.99094887)
(0 0.22250176 -0.97493229)
(0 0.30902265 -0.95105468)
(0 0.30902265 -0.95105468)
(0 0.39302631 -0.91952723)
(0 0.39302631 -0.91952723)
(0 0.47388903 -0.88058457)
(0 0.47388903 -0.88058457)
(0 0.55088306 -0.83458245)
(0 0.55088306 -0.83458245)
(0 0.62347425 -0.78184388)
(0 0.62347425 -0.78184388)
(0 0.69110301 -0.72275627)
(0 0.75302665 -0.65799002)
(0 0.69110301 -0.72275627)
(0 0.75302665 -0.65799002)
(0 0.80902707 -0.58777138)
(0 0.85844619 -0.51290363)
(0 0.80902707 -0.58777138)
(0 0.85844619 -0.51290363)
(0 0.90097426 -0.43387254)
(0 0.93621963 -0.35141542)
(0 0.90097426 -0.43387254)
(0 0.93621963 -0.35141542)
(0 0.96398247 -0.26596577)
(0 0.96398247 -0.26596577)
(0 0.9839227 -0.17859486)
(0 0.99597571 -0.089623599)
(0 0.9839227 -0.17859486)
(0 0.99597571 -0.089623599)
(0 1 0)
(0 1 0)
(0 0.99597566 0.089624168)
(0 0.99597566 0.089624168)
(0 0.9839229 0.17859374)
(0 0.96398202 0.2659674)
(0 0.9839229 0.17859374)
(0 0.96398202 0.2659674)
(0 0.93622042 0.35141332)
(0 0.90097426 0.43387254)
(0 0.93622042 0.35141332)
(0 0.90097426 0.43387254)
(0 0.85844535 0.51290504)
(0 0.85844535 0.51290504)
(0 0.80902707 0.58777138)
(0 0.80902707 0.58777138)
(0 0.75302665 0.65799002)
(0 0.69110135 0.72275786)
(0 0.75302665 0.65799002)
(0 0.69110135 0.72275786)
(0 0.6234762 0.78184233)
(0 0.6234762 0.78184233)
(0 0.55088306 0.83458245)
(0 0.4738915 0.88058324)
(0 0.55088306 0.83458245)
(0 0.4738915 0.88058324)
(0 0.39302361 0.91952838)
(0 0.39302361 0.91952838)
(0 0.30902265 0.95105468)
(0 0.30902265 0.95105468)
(0 0.22250479 0.9749316)
(0 0.22250479 0.9749316)
(0 0.1342336 0.99094972)
(0 0.1342336 0.99094972)
(0 0.044864044 0.9989931)
(0 0.044864044 0.9989931)
)

// normal volume types

140
(
0
0
0
0
0
0
0
0
0
0
0
0
0
0
0
0
0
0
0
0
0
0
0
0
0
0
0
0
0
0
0
0
0
0
0
0
0
0
0
0
0
0
0
0
0
0
0
0
0
0
0
0
0
0
0
0
0
0
0
0
0
0
0
0
0
0
0
0
0
0
0
0
0
0
0
0
0
0
0
0
0
0
0
0
0
0
0
0
0
0
0
0
0
0
0
0
0
0
0
0
0
0
0
0
0
0
0
0
0
0
0
0
0
0
0
0
0
0
0
0
0
0
0
0
0
0
0
0
0
0
0
0
0
0
0
0
0
0
0
0
)

// normalDirections

140
(
1(1)
1(1)
1(1)
1(1)
1(1)
1(1)
1(1)
1(1)
1(1)
1(1)
1(1)
1(1)
1(1)
1(1)
1(1)
1(1)
1(1)
1(1)
1(1)
1(1)
1(1)
1(1)
1(1)
1(1)
1(1)
1(1)
1(1)
1(1)
1(1)
1(1)
1(1)
1(1)
1(1)
1(1)
1(1)
1(1)
1(1)
1(1)
1(1)
1(1)
1(1)
1(1)
1(1)
1(1)
1(1)
1(1)
1(1)
1(1)
1(1)
1(1)
1(1)
1(1)
1(1)
1(1)
1(1)
1(1)
1(1)
1(1)
1(1)
1(1)
1(1)
1(1)
1(1)
1(1)
1(1)
1(1)
1(1)
1(1)
1(1)
1(1)
1(1)
1(1)
1(1)
1(1)
1(1)
1(1)
1(1)
1(1)
1(1)
1(1)
1(1)
1(1)
1(1)
1(1)
1(1)
1(1)
1(1)
1(1)
1(1)
1(1)
1(1)
1(1)
1(1)
1(1)
1(1)
1(1)
1(1)
1(1)
1(1)
1(1)
1(1)
1(1)
1(1)
1(1)
1(1)
1(1)
1(1)
1(1)
1(1)
1(1)
1(1)
1(1)
1(1)
1(1)
1(1)
1(1)
1(1)
1(1)
1(1)
1(1)
1(1)
1(1)
1(1)
1(1)
1(1)
1(1)
1(1)
1(1)
1(1)
1(1)
1(1)
1(1)
1(1)
1(1)
1(1)
1(1)
1(1)
1(1)
1(1)
1(1)
)

// edgeNormals

140
(
1(0)
1(1)
1(2)
1(3)
1(4)
1(5)
1(6)
1(7)
1(8)
1(9)
1(10)
1(11)
1(12)
1(13)
1(14)
1(15)
1(16)
1(17)
1(18)
1(19)
1(20)
1(21)
1(22)
1(23)
1(24)
1(25)
1(26)
1(27)
1(28)
1(29)
1(30)
1(31)
1(32)
1(33)
1(34)
1(35)
1(36)
1(37)
1(38)
1(39)
1(40)
1(41)
1(42)
1(43)
1(44)
1(45)
1(46)
1(47)
1(48)
1(49)
1(50)
1(51)
1(52)
1(53)
1(54)
1(55)
1(56)
1(57)
1(58)
1(59)
1(60)
1(61)
1(62)
1(63)
1(64)
1(65)
1(66)
1(67)
1(68)
1(69)
1(70)
1(71)
1(72)
1(73)
1(74)
1(75)
1(76)
1(77)
1(78)
1(79)
1(80)
1(81)
1(82)
1(83)
1(84)
1(85)
1(86)
1(87)
1(88)
1(89)
1(90)
1(91)
1(92)
1(93)
1(94)
1(95)
1(96)
1(97)
1(98)
1(99)
1(100)
1(101)
1(102)
1(103)
1(104)
1(105)
1(106)
1(107)
1(108)
1(109)
1(110)
1(111)
1(112)
1(113)
1(114)
1(115)
1(116)
1(117)
1(118)
1(119)
1(120)
1(121)
1(122)
1(123)
1(124)
1(125)
1(126)
1(127)
1(128)
1(129)
1(130)
1(131)
1(132)
1(133)
1(134)
1(135)
1(136)
1(137)
1(138)
1(139)
)

// featurePointNormals
0()
// featurePointEdges
0()
// regionEdges

140
(
0
1
2
3
4
5
6
7
8
9
10
11
12
13
14
15
16
17
18
19
20
21
22
23
24
25
26
27
28
29
30
31
32
33
34
35
36
37
38
39
40
41
42
43
44
45
46
47
48
49
50
51
52
53
54
55
56
57
58
59
60
61
62
63
64
65
66
67
68
69
70
71
72
73
74
75
76
77
78
79
80
81
82
83
84
85
86
87
88
89
90
91
92
93
94
95
96
97
98
99
100
101
102
103
104
105
106
107
108
109
110
111
112
113
114
115
116
117
118
119
120
121
122
123
124
125
126
127
128
129
130
131
132
133
134
135
136
137
138
139
)



// ************************************************************************* //
