/*--------------------------------*- C++ -*----------------------------------*\
  =========                 |
  \\      /  F ield         | OpenFOAM: The Open Source CFD Toolbox
   \\    /   O peration     | Website:  https://openfoam.org
    \\  /    A nd           | Version:  dev
     \\/     M anipulation  |
\*---------------------------------------------------------------------------*/
FoamFile
{
    format      ascii;
    class       extendedFeatureEdgeMesh;
    location    "constant/extendedFeatureEdgeMesh";
    object      pipe2.extendedFeatureEdgeMesh;
}
// * * * * * * * * * * * * * * * * * * * * * * * * * * * * * * * * * * * * * //

// points

140
(
(4.807178 -0.1 -2.7311959)
(4.8140001 -0.1 -2.73089)
(4.8140001 0 -2.73089)
(4.807178 -6.0595513e-17 -2.7311959)
(4.8004098 -0.1 -2.7321129)
(4.8004098 -1.2070309e-16 -2.7321129)
(4.7937522 -0.1 -2.733633)
(4.7937522 -1.798389e-16 -2.733633)
(4.7872572 -0.1 -2.735743)
(4.7872572 -2.3752681e-16 -2.735743)
(4.7809768 -0.1 -2.7384269)
(4.7809768 -2.933022e-16 -2.7384269)
(4.7749629 -0.1 -2.741663)
(4.7749629 -3.467161e-16 -2.741663)
(4.7692642 -0.1 -2.7454259)
(4.7692642 -3.973385e-16 -2.7454259)
(4.7639241 -0.1 -2.7496841)
(4.7639241 -4.447617e-16 -2.7496841)
(4.7589879 -4.8860402e-16 -2.7544031)
(4.7589879 -0.1 -2.7544031)
(4.7544951 -5.285123e-16 -2.759546)
(4.7544951 -0.1 -2.759546)
(4.7504811 -5.6416529e-16 -2.7650709)
(4.7504811 -0.1 -2.7650709)
(4.7469778 -5.9527612e-16 -2.7709341)
(4.7469778 -0.1 -2.7709341)
(4.7440152 -6.2159402e-16 -2.777087)
(4.7440152 -0.1 -2.777087)
(4.7416148 -6.4290722e-16 -2.7834809)
(4.7416148 -0.1 -2.7834809)
(4.7397981 -0.1 -2.7900641)
(4.7397981 -6.5904399e-16 -2.7900641)
(4.7385788 -0.1 -2.7967839)
(4.7385788 -6.6987468e-16 -2.7967839)
(4.737967 -0.1 -2.8035851)
(4.737967 -6.7531189e-16 -2.8035851)
(4.737967 -0.1 -2.810415)
(4.737967 -6.7531189e-16 -2.810415)
(4.7385788 -0.1 -2.8172159)
(4.7385788 -6.6987468e-16 -2.8172159)
(4.7397981 -0.1 -2.823936)
(4.7397981 -6.5904399e-16 -2.823936)
(4.7416148 -0.1 -2.830519)
(4.7416148 -6.4290722e-16 -2.830519)
(4.7440152 -6.2159402e-16 -2.8369131)
(4.7440152 -0.1 -2.8369131)
(4.7469778 -0.1 -2.843066)
(4.7469778 -5.9527612e-16 -2.843066)
(4.7504811 -5.6416529e-16 -2.8489289)
(4.7504811 -0.1 -2.8489289)
(4.7544951 -0.1 -2.854454)
(4.7544951 -5.285123e-16 -2.854454)
(4.7589879 -0.1 -2.859597)
(4.7589879 -4.8860402e-16 -2.859597)
(4.7639241 -4.447617e-16 -2.864316)
(4.7639241 -0.1 -2.864316)
(4.7692642 -0.1 -2.8685739)
(4.7692642 -3.973385e-16 -2.8685739)
(4.7749629 -3.467161e-16 -2.8723371)
(4.7809768 -2.933022e-16 -2.8755729)
(4.7749629 -0.1 -2.8723371)
(4.7809768 -0.1 -2.8755729)
(4.7872572 -2.3752681e-16 -2.878257)
(4.7937522 -1.798389e-16 -2.880367)
(4.7872572 -0.1 -2.878257)
(4.7937522 -0.1 -2.880367)
(4.8004098 -1.2070309e-16 -2.881887)
(4.8004098 -0.1 -2.881887)
(4.807178 -6.0595513e-17 -2.8828039)
(4.807178 -0.1 -2.8828039)
(4.8140001 -8.2785218e-32 -2.88311)
(4.8140001 -0.1 -2.88311)
(4.8208218 6.0595513e-17 -2.8828039)
(4.82759 1.2070309e-16 -2.881887)
(4.8208218 -0.1 -2.8828039)
(4.82759 -0.1 -2.881887)
(4.8342481 1.798389e-16 -2.880367)
(4.8342481 -0.1 -2.880367)
(4.8407431 2.3752681e-16 -2.878257)
(4.8407431 -0.1 -2.878257)
(4.847023 -0.1 -2.8755729)
(4.847023 2.933022e-16 -2.8755729)
(4.8530369 -0.1 -2.8723371)
(4.8530369 3.467161e-16 -2.8723371)
(4.858736 3.973385e-16 -2.8685739)
(4.858736 -0.1 -2.8685739)
(4.8640761 4.447617e-16 -2.864316)
(4.8640761 -0.1 -2.864316)
(4.8690119 4.8860402e-16 -2.859597)
(4.8690119 -0.1 -2.859597)
(4.8735051 5.285123e-16 -2.854454)
(4.8775191 5.6416529e-16 -2.8489289)
(4.8735051 -0.1 -2.854454)
(4.8775191 -0.1 -2.8489289)
(4.881022 5.9527612e-16 -2.843066)
(4.881022 -0.1 -2.843066)
(4.883985 6.2159402e-16 -2.8369131)
(4.883985 -0.1 -2.8369131)
(4.886385 6.4290722e-16 -2.830519)
(4.886385 -0.1 -2.830519)
(4.8882022 6.5904399e-16 -2.823936)
(4.8882022 -0.1 -2.823936)
(4.889421 6.6987468e-16 -2.8172159)
(4.889421 -0.1 -2.8172159)
(4.8900328 6.7531189e-16 -2.810415)
(4.8900328 6.7531189e-16 -2.8035851)
(4.8900328 -0.1 -2.810415)
(4.8900328 -0.1 -2.8035851)
(4.889421 6.6987468e-16 -2.7967839)
(4.889421 -0.1 -2.7967839)
(4.8882022 6.5904399e-16 -2.7900641)
(4.8882022 -0.1 -2.7900641)
(4.886385 6.4290722e-16 -2.7834809)
(4.886385 -0.1 -2.7834809)
(4.883985 6.2159402e-16 -2.777087)
(4.883985 -0.1 -2.777087)
(4.881022 5.9527612e-16 -2.7709341)
(4.881022 -0.1 -2.7709341)
(4.8775191 5.6416529e-16 -2.7650709)
(4.8775191 -0.1 -2.7650709)
(4.8735051 5.285123e-16 -2.759546)
(4.8735051 -0.1 -2.759546)
(4.8690119 4.8860402e-16 -2.7544031)
(4.8690119 -0.1 -2.7544031)
(4.8640761 4.447617e-16 -2.7496841)
(4.8640761 -0.1 -2.7496841)
(4.858736 3.973385e-16 -2.7454259)
(4.858736 -0.1 -2.7454259)
(4.8530369 3.467161e-16 -2.741663)
(4.8530369 -0.1 -2.741663)
(4.847023 -0.1 -2.7384269)
(4.847023 2.933022e-16 -2.7384269)
(4.8407431 -0.1 -2.735743)
(4.8407431 2.3752681e-16 -2.735743)
(4.8342481 -0.1 -2.733633)
(4.8342481 1.798389e-16 -2.733633)
(4.82759 -0.1 -2.7321129)
(4.82759 1.2070309e-16 -2.7321129)
(4.8208218 -0.1 -2.7311959)
(4.8208218 6.0595513e-17 -2.7311959)
)

// edges

140
(
(0 1)
(2 3)
(4 0)
(3 5)
(6 4)
(5 7)
(8 6)
(7 9)
(10 8)
(9 11)
(12 10)
(11 13)
(14 12)
(13 15)
(16 14)
(15 17)
(17 18)
(19 16)
(18 20)
(21 19)
(20 22)
(23 21)
(22 24)
(25 23)
(24 26)
(27 25)
(26 28)
(29 27)
(30 29)
(28 31)
(32 30)
(31 33)
(34 32)
(33 35)
(36 34)
(35 37)
(38 36)
(37 39)
(40 38)
(39 41)
(42 40)
(41 43)
(43 44)
(45 42)
(46 45)
(44 47)
(47 48)
(49 46)
(50 49)
(48 51)
(52 50)
(51 53)
(53 54)
(55 52)
(56 55)
(54 57)
(57 58)
(58 59)
(60 56)
(61 60)
(59 62)
(62 63)
(64 61)
(65 64)
(63 66)
(67 65)
(66 68)
(69 67)
(68 70)
(71 69)
(70 72)
(72 73)
(74 71)
(75 74)
(73 76)
(77 75)
(76 78)
(79 77)
(80 79)
(78 81)
(82 80)
(81 83)
(83 84)
(85 82)
(84 86)
(87 85)
(86 88)
(89 87)
(88 90)
(90 91)
(92 89)
(93 92)
(91 94)
(95 93)
(94 96)
(97 95)
(96 98)
(99 97)
(98 100)
(101 99)
(100 102)
(103 101)
(102 104)
(104 105)
(106 103)
(107 106)
(105 108)
(109 107)
(108 110)
(111 109)
(110 112)
(113 111)
(112 114)
(115 113)
(114 116)
(117 115)
(116 118)
(119 117)
(118 120)
(121 119)
(120 122)
(123 121)
(122 124)
(125 123)
(124 126)
(127 125)
(126 128)
(129 127)
(130 129)
(128 131)
(132 130)
(131 133)
(134 132)
(133 135)
(136 134)
(135 137)
(138 136)
(137 139)
(139 2)
(1 138)
)

// concaveStart mixedStart nonFeatureStart
0 0 0
// internalStart flatStart openStart multipleStart
0 0 0 140
// normals

140
(
(-0.044793186 0 0.99899628)
(-0.044793186 0 0.99899628)
(-0.13425329 0 0.99094705)
(-0.13425329 0 0.99094705)
(-0.22260486 0 0.97490875)
(-0.22260486 0 0.97490875)
(-0.30897082 0 0.95107152)
(-0.30897082 0 0.95107152)
(-0.39296272 0 0.9195544)
(-0.39296272 0 0.9195544)
(-0.47385206 0 0.88060446)
(-0.47385206 0 0.88060446)
(-0.55102897 0 0.83448612)
(-0.55102897 0 0.83448612)
(-0.6234512 0 0.78186226)
(-0.6234512 0 0.78186226)
(-0.69102524 0 0.72283063)
(-0.69102524 0 0.72283063)
(-0.75310632 0 0.65789883)
(-0.75310632 0 0.65789883)
(-0.80901982 0 0.58778137)
(-0.80901982 0 0.58778137)
(-0.85843398 0 0.51292408)
(-0.85843398 0 0.51292408)
(-0.90099611 0 0.43382717)
(-0.90099611 0 0.43382717)
(-0.9362 0 0.35146773)
(-0.9362 0 0.35146773)
(-0.96396669 0 0.26602297)
(-0.96396669 0 0.26602297)
(-0.98393464 0 0.17852907)
(-0.98393464 0 0.17852907)
(-0.99597861 0 0.08959129)
(-0.99597861 0 0.08959129)
(-1 0 0)
(-1 0 0)
(-0.99597833 0 -0.089594405)
(-0.99597833 0 -0.089594405)
(-0.98393575 0 -0.17852293)
(-0.98393575 0 -0.17852293)
(-0.96396422 0 -0.26603192)
(-0.96396422 0 -0.26603192)
(-0.93620431 0 -0.35145624)
(-0.93620431 0 -0.35145624)
(-0.90099611 0 -0.43382717)
(-0.90099611 0 -0.43382717)
(-0.85842479 0 -0.51293945)
(-0.85842479 0 -0.51293945)
(-0.80903188 0 -0.58776477)
(-0.80903188 0 -0.58776477)
(-0.75310632 0 -0.65789883)
(-0.75310632 0 -0.65789883)
(-0.69102524 0 -0.72283063)
(-0.69102524 0 -0.72283063)
(-0.62342986 0 -0.78187928)
(-0.62342986 0 -0.78187928)
(-0.55105328 0 -0.83447006)
(-0.47382499 0 -0.88061903)
(-0.55105328 0 -0.83447006)
(-0.47382499 0 -0.88061903)
(-0.39299224 0 -0.91954179)
(-0.30897082 0 -0.95107152)
(-0.39299224 0 -0.91954179)
(-0.30897082 0 -0.95107152)
(-0.22257168 0 -0.97491633)
(-0.22257168 0 -0.97491633)
(-0.13425329 0 -0.99094705)
(-0.13425329 0 -0.99094705)
(-0.044828029 0 -0.99899472)
(-0.044828029 0 -0.99899472)
(0.044831156 0 -0.99899458)
(0.13425329 0 -0.99094705)
(0.044831156 0 -0.99899458)
(0.13425329 0 -0.99094705)
(0.22255653 0 -0.97491979)
(0.22255653 0 -0.97491979)
(0.30897082 0 -0.95107152)
(0.30897082 0 -0.95107152)
(0.39301747 0 -0.91953101)
(0.39301747 0 -0.91953101)
(0.47382499 0 -0.88061903)
(0.47382499 0 -0.88061903)
(0.55102117 0 -0.83449126)
(0.55102117 0 -0.83449126)
(0.62342986 0 -0.78187928)
(0.62342986 0 -0.78187928)
(0.69106012 0 -0.72279728)
(0.69106012 0 -0.72279728)
(0.75307173 0 -0.65793843)
(0.80903188 0 -0.58776477)
(0.75307173 0 -0.65793843)
(0.80903188 0 -0.58776477)
(0.85845553 0 -0.512888)
(0.85845553 0 -0.512888)
(0.90096882 0 -0.43388385)
(0.90096882 0 -0.43388385)
(0.93622728 0 -0.35139505)
(0.93622728 0 -0.35139505)
(0.96394631 0 -0.2660968)
(0.96394631 0 -0.2660968)
(0.98394801 0 -0.17845534)
(0.98394801 0 -0.17845534)
(0.99597833 0 -0.089594405)
(1 0 0)
(0.99597833 0 -0.089594405)
(1 -0 0)
(0.99597861 -0 0.08959129)
(0.99597861 0 0.08959129)
(0.9839469 -0 0.17846147)
(0.9839469 0 0.17846147)
(0.96394878 -0 0.26608785)
(0.96394878 0 0.26608785)
(0.93622297 -0 0.35140653)
(0.93622297 0 0.35140653)
(0.90096882 -0 0.43388385)
(0.90096882 0 0.43388385)
(0.85846472 -0 0.51287263)
(0.85846472 0 0.51287263)
(0.80901982 -0 0.58778137)
(0.80901982 0 0.58778137)
(0.75307173 -0 0.65793843)
(0.75307173 0 0.65793843)
(0.69106012 -0 0.72279728)
(0.69106012 0 0.72279728)
(0.6234512 -0 0.78186226)
(0.6234512 0 0.78186226)
(0.55099686 -0 0.83450732)
(0.55099686 0 0.83450732)
(0.47385206 0 0.88060446)
(0.47385206 -0 0.88060446)
(0.39298795 0 0.91954362)
(0.39298795 -0 0.91954362)
(0.30897082 0 0.95107152)
(0.30897082 -0 0.95107152)
(0.22258971 0 0.97491221)
(0.22258971 -0 0.97491221)
(0.13425329 0 0.99094705)
(0.13425329 -0 0.99094705)
(0.044796311 -0 0.99899614)
(0.044796311 -0 0.99899614)
)

// normal volume types

140
(
0
0
0
0
0
0
0
0
0
0
0
0
0
0
0
0
0
0
0
0
0
0
0
0
0
0
0
0
0
0
0
0
0
0
0
0
0
0
0
0
0
0
0
0
0
0
0
0
0
0
0
0
0
0
0
0
0
0
0
0
0
0
0
0
0
0
0
0
0
0
0
0
0
0
0
0
0
0
0
0
0
0
0
0
0
0
0
0
0
0
0
0
0
0
0
0
0
0
0
0
0
0
0
0
0
0
0
0
0
0
0
0
0
0
0
0
0
0
0
0
0
0
0
0
0
0
0
0
0
0
0
0
0
0
0
0
0
0
0
0
)

// normalDirections

140
(
1(1)
1(1)
1(1)
1(1)
1(1)
1(1)
1(1)
1(1)
1(1)
1(1)
1(1)
1(1)
1(1)
1(1)
1(1)
1(1)
1(1)
1(1)
1(1)
1(1)
1(1)
1(1)
1(1)
1(1)
1(1)
1(1)
1(1)
1(1)
1(1)
1(1)
1(1)
1(1)
1(1)
1(1)
1(1)
1(1)
1(1)
1(1)
1(1)
1(1)
1(1)
1(1)
1(1)
1(1)
1(1)
1(1)
1(1)
1(1)
1(1)
1(1)
1(1)
1(1)
1(1)
1(1)
1(1)
1(1)
1(1)
1(1)
1(1)
1(1)
1(1)
1(1)
1(1)
1(1)
1(1)
1(1)
1(1)
1(1)
1(1)
1(1)
1(1)
1(1)
1(1)
1(1)
1(1)
1(1)
1(1)
1(1)
1(1)
1(1)
1(1)
1(1)
1(1)
1(1)
1(1)
1(1)
1(1)
1(1)
1(1)
1(1)
1(1)
1(1)
1(1)
1(1)
1(1)
1(1)
1(1)
1(1)
1(1)
1(1)
1(1)
1(1)
1(1)
1(1)
1(1)
1(1)
1(1)
1(1)
1(1)
1(1)
1(1)
1(1)
1(1)
1(1)
1(1)
1(1)
1(1)
1(1)
1(1)
1(1)
1(1)
1(1)
1(1)
1(1)
1(1)
1(1)
1(1)
1(1)
1(1)
1(1)
1(1)
1(1)
1(1)
1(1)
1(1)
1(1)
1(1)
1(1)
1(1)
1(1)
)

// edgeNormals

140
(
1(0)
1(1)
1(2)
1(3)
1(4)
1(5)
1(6)
1(7)
1(8)
1(9)
1(10)
1(11)
1(12)
1(13)
1(14)
1(15)
1(16)
1(17)
1(18)
1(19)
1(20)
1(21)
1(22)
1(23)
1(24)
1(25)
1(26)
1(27)
1(28)
1(29)
1(30)
1(31)
1(32)
1(33)
1(34)
1(35)
1(36)
1(37)
1(38)
1(39)
1(40)
1(41)
1(42)
1(43)
1(44)
1(45)
1(46)
1(47)
1(48)
1(49)
1(50)
1(51)
1(52)
1(53)
1(54)
1(55)
1(56)
1(57)
1(58)
1(59)
1(60)
1(61)
1(62)
1(63)
1(64)
1(65)
1(66)
1(67)
1(68)
1(69)
1(70)
1(71)
1(72)
1(73)
1(74)
1(75)
1(76)
1(77)
1(78)
1(79)
1(80)
1(81)
1(82)
1(83)
1(84)
1(85)
1(86)
1(87)
1(88)
1(89)
1(90)
1(91)
1(92)
1(93)
1(94)
1(95)
1(96)
1(97)
1(98)
1(99)
1(100)
1(101)
1(102)
1(103)
1(104)
1(105)
1(106)
1(107)
1(108)
1(109)
1(110)
1(111)
1(112)
1(113)
1(114)
1(115)
1(116)
1(117)
1(118)
1(119)
1(120)
1(121)
1(122)
1(123)
1(124)
1(125)
1(126)
1(127)
1(128)
1(129)
1(130)
1(131)
1(132)
1(133)
1(134)
1(135)
1(136)
1(137)
1(138)
1(139)
)

// featurePointNormals
0()
// featurePointEdges
0()
// regionEdges

140
(
0
1
2
3
4
5
6
7
8
9
10
11
12
13
14
15
16
17
18
19
20
21
22
23
24
25
26
27
28
29
30
31
32
33
34
35
36
37
38
39
40
41
42
43
44
45
46
47
48
49
50
51
52
53
54
55
56
57
58
59
60
61
62
63
64
65
66
67
68
69
70
71
72
73
74
75
76
77
78
79
80
81
82
83
84
85
86
87
88
89
90
91
92
93
94
95
96
97
98
99
100
101
102
103
104
105
106
107
108
109
110
111
112
113
114
115
116
117
118
119
120
121
122
123
124
125
126
127
128
129
130
131
132
133
134
135
136
137
138
139
)



// ************************************************************************* //
