/*--------------------------------*- C++ -*----------------------------------*\
  =========                 |
  \\      /  F ield         | OpenFOAM: The Open Source CFD Toolbox
   \\    /   O peration     | Website:  https://openfoam.org
    \\  /    A nd           | Version:  dev
     \\/     M anipulation  |
\*---------------------------------------------------------------------------*/
FoamFile
{
    format      ascii;
    class       extendedFeatureEdgeMesh;
    location    "constant/extendedFeatureEdgeMesh";
    object      pipe1.extendedFeatureEdgeMesh;
}
// * * * * * * * * * * * * * * * * * * * * * * * * * * * * * * * * * * * * * //

// points

92
(
(0.12389 1.575 0.67388999)
(0.12518591 1.588985 0.67388999)
(0.12389 1.588985 0.67518592)
(0.1240592 1.588985 0.67517477)
(0.1242254 1.588985 0.67514181)
(0.1240592 1.561015 0.67517477)
(0.1243859 1.588985 0.67508727)
(0.1242254 1.561015 0.67514181)
(0.124538 1.588985 0.67501229)
(0.1243859 1.561015 0.67508727)
(0.1246789 1.588985 0.67491812)
(0.124538 1.561015 0.67501229)
(0.1248064 1.588985 0.67480642)
(0.1246789 1.561015 0.67491812)
(0.1249181 1.588985 0.67467892)
(0.1248064 1.561015 0.67480642)
(0.12501229 1.588985 0.67453802)
(0.1249181 1.561015 0.67467892)
(0.12508731 1.588985 0.67438591)
(0.12501229 1.561015 0.67453802)
(0.1251418 1.588985 0.67422539)
(0.12508731 1.561015 0.67438591)
(0.1251418 1.561015 0.67422539)
(0.12517481 1.561015 0.67405921)
(0.2748141 1.561015 0.15000001)
(0.27610999 1.575 0.15000001)
(0.27097049 1.547506 0.15000001)
(0.26471001 1.534933 0.15000001)
(0.256246 1.523725 0.15000001)
(0.24586651 1.514263 0.15000001)
(0.2339251 1.506869 0.15000001)
(0.2208285 1.5017951 0.15000001)
(0.2070225 1.499215 0.15000001)
(0.1929775 1.499215 0.15000001)
(0.1791715 1.5017951 0.15000001)
(0.1660749 1.506869 0.15000001)
(0.1541335 1.514263 0.15000001)
(0.14375401 1.523725 0.15000001)
(0.13529 1.534933 0.15000001)
(0.1290295 1.547506 0.15000001)
(0.12518591 1.561015 0.15000001)
(0.12389 1.575 0.15000001)
(0.12518591 1.588985 0.15000001)
(0.1290295 1.602494 0.15000001)
(0.13529 1.615067 0.15000001)
(0.14375401 1.6262749 0.15000001)
(0.1541335 1.6357369 0.15000001)
(0.1660749 1.643131 0.15000001)
(0.1791715 1.648205 0.15000001)
(0.1929775 1.650785 0.15000001)
(0.2070225 1.650785 0.15000001)
(0.2208285 1.648205 0.15000001)
(0.2339251 1.643131 0.15000001)
(0.24586651 1.6357369 0.15000001)
(0.256246 1.6262749 0.15000001)
(0.26471001 1.615067 0.15000001)
(0.27097049 1.602494 0.15000001)
(0.2748141 1.588985 0.15000001)
(-0.40000001 1.575 0.82611001)
(-0.40000001 1.561015 0.82481408)
(-0.40000001 1.547506 0.82097048)
(-0.40000001 1.534933 0.81471002)
(-0.40000001 1.523725 0.80624598)
(-0.40000001 1.514263 0.79586649)
(-0.40000001 1.506869 0.78392512)
(-0.40000001 1.5017951 0.77082849)
(-0.40000001 1.499215 0.7570225)
(-0.40000001 1.499215 0.7429775)
(-0.40000001 1.5017951 0.72917151)
(-0.40000001 1.506869 0.71607488)
(-0.40000001 1.514263 0.70413351)
(-0.40000001 1.523725 0.69375402)
(-0.40000001 1.534933 0.68528998)
(-0.40000001 1.547506 0.67902952)
(-0.40000001 1.561015 0.67518592)
(-0.40000001 1.575 0.67388999)
(-0.40000001 1.588985 0.67518592)
(-0.40000001 1.602494 0.67902952)
(-0.40000001 1.615067 0.68528998)
(-0.40000001 1.6262749 0.69375402)
(-0.40000001 1.6357369 0.70413351)
(-0.40000001 1.643131 0.71607488)
(-0.40000001 1.648205 0.72917151)
(-0.40000001 1.650785 0.7429775)
(-0.40000001 1.650785 0.7570225)
(-0.40000001 1.648205 0.77082849)
(-0.40000001 1.643131 0.78392512)
(-0.40000001 1.6357369 0.79586649)
(-0.40000001 1.6262749 0.80624598)
(-0.40000001 1.615067 0.81471002)
(-0.40000001 1.602494 0.82097048)
(-0.40000001 1.588985 0.82481408)
)

// edges

98
(
(24 25)
(26 24)
(27 26)
(28 27)
(29 28)
(30 29)
(31 30)
(32 31)
(33 32)
(34 33)
(35 34)
(36 35)
(37 36)
(38 37)
(39 38)
(40 39)
(41 40)
(42 41)
(43 42)
(44 43)
(45 44)
(46 45)
(47 46)
(48 47)
(49 48)
(50 49)
(51 50)
(52 51)
(53 52)
(54 53)
(55 54)
(56 55)
(57 56)
(25 57)
(58 59)
(59 60)
(60 61)
(61 62)
(62 63)
(63 64)
(64 65)
(65 66)
(66 67)
(67 68)
(68 69)
(69 70)
(70 71)
(71 72)
(72 73)
(73 74)
(74 75)
(75 76)
(76 77)
(77 78)
(78 79)
(79 80)
(80 81)
(81 82)
(82 83)
(83 84)
(84 85)
(85 86)
(86 87)
(87 88)
(88 89)
(89 90)
(90 91)
(91 58)
(0 1)
(0 2)
(3 0)
2{0}
(4 0)
(5 0)
(0 5)
(6 0)
(0 7)
(8 0)
(0 9)
(10 0)
(11 0)
(0 11)
(12 0)
(0 13)
(14 0)
(15 0)
(0 15)
(16 0)
(0 17)
(18 0)
(19 0)
(0 19)
(20 0)
(21 0)
(0 21)
(22 0)
(0 22)
(23 0)
)

// concaveStart mixedStart nonFeatureStart
0 0 1
// internalStart flatStart openStart multipleStart
0 0 0 68
// normals

118
(
(-0.99573407 0.09226947 0)
(0 0 0)
(-0.99361632 0.09207323 -0.065185291)
(-0.065452392 0.092072666 -0.99359882)
(0 0 0)
(0 0.092270522 -0.99573398)
(0 0 0)
(-0.1937082 0.092074608 -0.97672893)
(0 0 0)
(0 0 0)
(0 0 0)
(0 0 0)
(0 0 0)
(0 0 0)
(0 0 0)
(0 0 0)
(0 0 0)
(0 0 0)
(0 0 0)
(0 0 0)
(0 0 0)
(0 0 0)
(0 0 0)
(0 0 0)
(0 0 0)
(0 0 0)
(0 0 0)
(0 0 0)
(0 0 0)
(-0.32036737 0.092075963 -0.94280791)
(-0.065452397 -0.092071888 -0.99359889)
(-0.19370821 -0.09207383 -0.976729)
(-0.44030183 0.09207461 -0.89311621)
(-0.3203674 -0.092075185 -0.94280798)
(-0.55331328 0.092074922 -0.82786873)
(-0.44030186 -0.092073831 -0.89311628)
(-0.65617807 0.092077098 -0.74896739)
(-0.55331332 -0.092074143 -0.82786879)
(-0.74894569 0.09207715 -0.65620283)
(-0.65617812 -0.09207632 -0.74896744)
(-0.82782824 0.09207536 -0.55337377)
(-0.74894575 -0.092076372 -0.65620287)
(-0.8930638 0.092076019 -0.44040783)
(-0.8278283 -0.092074582 -0.55337381)
(-0.94289689 0.092076466 -0.32010527)
(-0.89306386 -0.092075241 -0.44040786)
(-0.97667373 0.092075187 -0.19398604)
(-0.94289696 -0.092075688 -0.32010529)
(-0.9766738 -0.092074409 -0.19398605)
(-0.9936164 -0.092072451 -0.065185295)
(0.99573424 -0.092267639 0)
(0.96182651 -0.27365994 0)
(0.89516691 -0.44573108 0)
(0.79801153 -0.60264219 0)
(0.67368945 -0.73901457 0)
(0.52644614 -0.85020848 0)
(0.36125744 -0.93246612 0)
(0.18369847 -0.98298264 0)
(0 -1 0)
(-0.18369847 -0.98298264 0)
(-0.36125744 -0.93246612 0)
(-0.52644614 -0.85020848 0)
(-0.67368945 -0.73901457 0)
(-0.79801153 -0.60264219 0)
(-0.89516649 -0.44573193 0)
(-0.96182679 -0.27365895 0)
(-0.99573415 -0.092268691 0)
(-0.99573407 0.09226947 0)
(-0.96182679 0.27365895 0)
(-0.89516649 0.44573193 0)
(-0.79801153 0.60264219 0)
(-0.67368945 0.73901457 0)
(-0.52644614 0.85020848 0)
(-0.36126482 0.93246326 0)
(-0.18369026 0.98298417 0)
(0 1 0)
(0.18369026 0.98298417 0)
(0.36126482 0.93246326 0)
(0.52644614 0.85020848 -0)
(0.67368945 0.73901457 0)
(0.79801153 0.60264219 0)
(0.89516691 0.44573108 0)
(0.96182651 0.27365994 0)
(0.99573417 0.092268418 -0)
(0 -0.092269742 0.99573405)
(0 -0.27365994 0.96182651)
(0 -0.44572938 0.89516776)
(0 -0.60264354 0.7980105)
(0 -0.73901457 0.67368945)
(0 -0.85020789 0.52644709)
(0 -0.93246639 0.36125673)
(0 -0.98298261 0.18369866)
(0 -1 0)
(-0 -0.98298261 -0.18369866)
(-0 -0.93246639 -0.36125673)
(-0 -0.85020789 -0.52644709)
(-0 -0.73901457 -0.67368945)
(-0 -0.60264354 -0.7980105)
(-0 -0.44572938 -0.89516776)
(-0 -0.27365994 -0.96182651)
(-0 -0.092269742 -0.99573405)
(0 0.092270522 -0.99573398)
(0 0.27365994 -0.96182651)
(0 0.44572938 -0.89516776)
(0 0.60264354 -0.7980105)
(0 0.73901457 -0.67368945)
(0 0.85020789 -0.52644709)
(0 0.93246354 -0.36126411)
(0 0.98298414 -0.18369046)
(0 1 0)
(0 0.98298414 0.18369046)
(0 0.93246354 0.36126411)
(0 0.85020789 0.52644709)
(0 0.73901457 0.67368945)
(0 0.60264354 0.7980105)
(0 0.44572938 0.89516776)
(0 0.27365994 0.96182651)
(0 0.092270522 0.99573398)
)

// normal volume types

118
(
0
0
0
0
0
0
0
0
0
0
0
0
0
0
0
0
0
0
0
0
0
0
0
0
0
0
0
0
0
0
0
0
0
0
0
0
0
0
0
0
0
0
0
0
0
0
0
0
0
0
0
0
0
0
0
0
0
0
0
0
0
0
0
0
0
0
0
0
0
0
0
0
0
0
0
0
0
0
0
0
0
0
0
0
0
0
0
0
0
0
0
0
0
0
0
0
0
0
0
0
0
0
0
0
0
0
0
0
0
0
0
0
0
0
0
0
0
0
)

// normalDirections

98
(
1(1)
1(1)
1(1)
1(1)
1(1)
1(1)
1(1)
1(1)
1(1)
1(1)
1(1)
1(1)
1(1)
1(1)
1(1)
1(1)
1(1)
1(1)
1(1)
1(1)
1(1)
1(1)
1(1)
1(1)
1(1)
1(1)
1(1)
1(1)
1(1)
1(1)
1(1)
1(1)
1(1)
1(1)
1(1)
1(1)
1(1)
1(1)
1(1)
1(1)
1(1)
1(1)
1(1)
1(1)
1(1)
1(1)
1(1)
1(1)
1(1)
1(1)
1(1)
1(1)
1(1)
1(1)
1(1)
1(1)
1(1)
1(1)
1(1)
1(1)
1(1)
1(1)
1(1)
1(1)
1(1)
1(1)
1(1)
1(1)
6(1 -1 -1 -1 -1 -1)
6(1 -1 -1 -1 -1 -1)
4(1 -1 -1 -1)
47{-1}
4(1 -1 -1 -1)
3(-1 -1 1)
3(-1 1 -1)
4(1 -1 -1 -1)
6(1 -1 -1 -1 -1 -1)
4(1 -1 -1 -1)
6(1 -1 -1 -1 -1 -1)
4(1 -1 -1 -1)
3(-1 -1 1)
3(-1 1 -1)
4(1 -1 -1 -1)
6(1 -1 -1 -1 -1 -1)
4(1 -1 -1 -1)
3(-1 -1 1)
3(-1 1 -1)
4(1 -1 -1 -1)
6(1 -1 -1 -1 -1 -1)
4(1 -1 -1 -1)
3(-1 -1 1)
3(-1 1 -1)
4(1 -1 -1 -1)
3(-1 -1 1)
3(-1 1 -1)
3(-1 -1 1)
3(-1 1 -1)
6(1 -1 -1 -1 -1 -1)
)

// edgeNormals

98
(
1(50)
1(51)
1(52)
1(53)
1(54)
1(55)
1(56)
1(57)
1(58)
1(59)
1(60)
1(61)
1(62)
1(63)
1(64)
1(65)
1(66)
1(67)
1(68)
1(69)
1(70)
1(71)
1(72)
1(73)
1(74)
1(75)
1(76)
1(77)
1(78)
1(79)
1(80)
1(81)
1(82)
1(83)
1(84)
1(85)
1(86)
1(87)
1(88)
1(89)
1(90)
1(91)
1(92)
1(93)
1(94)
1(95)
1(96)
1(97)
1(98)
1(99)
1(100)
1(101)
1(102)
1(103)
1(104)
1(105)
1(106)
1(107)
1(108)
1(109)
1(110)
1(111)
1(112)
1(113)
1(114)
1(115)
1(116)
1(117)
6(0 1 1 1 1 2)
6(3 4 4 4 4 5)
4(3 6 6 7)

47
(
4
6
6
8
8
9
9
10
10
11
11
12
12
13
13
14
14
15
15
16
16
17
17
18
18
19
19
20
20
21
21
22
22
23
23
24
24
1
1
25
25
26
26
27
27
28
28
)

4(7 9 9 29)
3(8 30 31)
3(8 30 31)
4(29 11 11 32)
6(31 10 10 10 10 33)
4(32 13 13 34)
6(33 12 12 12 12 35)
4(34 15 15 36)
3(14 35 37)
3(14 35 37)
4(36 17 17 38)
6(37 16 16 16 16 39)
4(38 19 19 40)
3(18 39 41)
3(18 39 41)
4(40 21 21 42)
6(41 20 20 20 20 43)
4(42 23 23 44)
3(22 43 45)
3(22 43 45)
4(44 25 25 46)
3(24 45 47)
3(24 45 47)
3(26 47 48)
3(26 47 48)
6(49 27 27 28 28 48)
)

// featurePointNormals
1(
50
(
0
1
2
3
4
5
6
7
8
9
10
11
12
13
14
15
16
17
18
19
20
21
22
23
24
25
26
27
28
29
30
31
32
33
34
35
36
37
38
39
40
41
42
43
44
45
46
47
48
49
)
)
// featurePointEdges
1(
31
(
68
69
70
71
71
72
73
74
75
76
77
78
79
80
81
82
83
84
85
86
87
88
89
90
91
92
93
94
95
96
97
)
)
// regionEdges

98
(
68
69
70
71
72
73
74
75
76
77
78
79
80
81
82
83
84
85
86
87
88
89
90
91
92
93
94
95
96
97
0
1
2
3
4
5
6
7
8
9
10
11
12
13
14
15
16
17
18
19
20
21
22
23
24
25
26
27
28
29
30
31
32
33
34
35
36
37
38
39
40
41
42
43
44
45
46
47
48
49
50
51
52
53
54
55
56
57
58
59
60
61
62
63
64
65
66
67
)



// ************************************************************************* //
