/*--------------------------------*- C++ -*----------------------------------*\
  =========                 |
  \\      /  F ield         | OpenFOAM: The Open Source CFD Toolbox
   \\    /   O peration     | Website:  https://openfoam.org
    \\  /    A nd           | Version:  dev
     \\/     M anipulation  |
\*---------------------------------------------------------------------------*/
FoamFile
{
    version     2.0;
    format      ascii;
    class       dictionary;
    location    "system";
    object      setFieldsDict;
}
// * * * * * * * * * * * * * * * * * * * * * * * * * * * * * * * * * * * * * //

defaultFieldValues
(
    volScalarFieldValue alpha.water 0
);

regions

(
    boxToCell
    {
        box (1.7 0 -2.8892) (11.03 3.15 0.71);
        fieldValues
        (
            volScalarFieldValue alpha.water 1
        );
    }
    boxToCell   //vertedero de entrada
    {
         box (0 0 0) (1.7 3.11863 0.8);
         fieldValues
        (
             volScalarFieldValue alpha.water 1
        );
    }
);


// ************************************************************************* //
